data/pglib_opf_case10000_goc_storage.m
%%%%%%%%%%%%%%%%%%%%%%%%%%%%%%%%%%%%%%%%%%%%%%%%%%%%%%%%%%%%%%%%%%%%%%%%%%%
%%%%                                                                  %%%%%
%%%%    IEEE PES Power Grid Library - Optimal Power Flow - v23.07     %%%%%
%%%%          (https://github.com/power-grid-lib/pglib-opf)           %%%%%
%%%%               Benchmark Group - Typical Operations               %%%%%
%%%%                         23 - July - 2023                         %%%%%
%%%%                                                                  %%%%%
%%%%%%%%%%%%%%%%%%%%%%%%%%%%%%%%%%%%%%%%%%%%%%%%%%%%%%%%%%%%%%%%%%%%%%%%%%%
%
%   This is a synthetic 10,000 bus case, developed for use in ARPA-e's Grid
%   Optimization Competition, Challenge 1.
%
%   https://gocompetition.energy.gov/challenges/22/datasets
%
%   When publishing results based on this data, please cite:
%
%   [1] A.B. Birchfield, T. Xu, K.M. Gegner, K.S. Shetye, T.J. Overbye,
%       "Grid Structural Characteristics as Validation Criteria for
%       Synthetic Networks," IEEE Transactions on Power Systems, 2017.
%
%   February, 2020
%
%   Copyright (c) 2020 by A.B. Birchfield, H. Li, J. Wert, J. Yeo, T. Xu,
%   and T.J. Overbye
%   Licensed under the Creative Commons Attribution 4.0 International license,
%   http://creativecommons.org/licenses/by/4.0/
%
% Modified to have additional storage capacity and increased gencost
function mpc = pglib_opf_case10000_goc
mpc.version = '2';
mpc.baseMVA = 100.0;

%% bus data
%	bus_i	type	Pd	Qd	Gs	Bs	area	Vm	Va	baseKV	zone	Vmax	Vmin
mpc.bus = [
	1	 1	 14.811	 8.355	 0.0	 0.0	 1	    1.00000	    0.00000	 115.0	 1	    1.10000	    0.90000;
	2	 1	 8.472	 4.115	 0.0	 0.0	 1	    1.00000	    0.00000	 115.0	 1	    1.10000	    0.90000;
	3	 1	 10.163	 0.947	 0.0	 0.0	 1	    1.00000	    0.00000	 115.0	 1	    1.10000	    0.90000;
	4	 1	 6.162	 1.482	 0.0	 0.0	 1	    1.00000	    0.00000	 115.0	 1	    1.10000	    0.90000;
	5	 1	 0.0	 0.0	 0.0	 0.0	 1	    1.00000	    0.00000	 115.0	 1	    1.10000	    0.90000;
	6	 1	 7.075	 3.246	 0.0	 0.0	 1	    1.00000	    0.00000	 115.0	 1	    1.10000	    0.90000;
	7	 1	 14.144	 2.528	 0.0	 0.0	 1	    1.00000	    0.00000	 115.0	 1	    1.10000	    0.90000;
	8	 1	 17.562	 1.122	 0.0	 0.0	 1	    1.00000	    0.00000	 115.0	 1	    1.10000	    0.90000;
	9	 1	 14.415	 6.33	 0.0	 5.04066867054	 1	    1.00000	    0.00000	 115.0	 1	    1.10000	    0.90000;
	10	 1	 27.65	 6.748	 0.0	 0.0	 1	    1.00000	    0.00000	 115.0	 1	    1.10000	    0.90000;
	11	 1	 7.856	 0.46	 0.0	 0.0	 1	    1.00000	    0.00000	 115.0	 1	    1.10000	    0.90000;
	12	 1	 0.0	 0.0	 0.0	 -5.0997424252	 1	    1.00000	    0.00000	 230.0	 1	    1.10000	    0.90000;
	13	 1	 0.0	 0.0	 0.0	 0.0	 1	    1.00000	    0.00000	 115.0	 1	    1.10000	    0.90000;
	14	 1	 15.706	 4.637	 0.0	 0.0	 1	    1.00000	    0.00000	 230.0	 1	    1.10000	    0.90000;
	15	 1	 0.0	 0.0	 0.0	 0.0	 1	    1.00000	    0.00000	 230.0	 1	    1.10000	    0.90000;
	16	 1	 0.0	 0.0	 0.0	 0.0	 1	    1.00000	    0.00000	 230.0	 1	    1.10000	    0.90000;
	17	 1	 0.0	 0.0	 0.0	 0.0	 1	    1.00000	    0.00000	 115.0	 1	    1.10000	    0.90000;
	18	 1	 23.402	 1.937	 0.0	 0.0	 1	    1.00000	    0.00000	 230.0	 1	    1.10000	    0.90000;
	19	 1	 0.0	 0.0	 0.0	 0.0	 1	    1.00000	    0.00000	 230.0	 1	    1.10000	    0.90000;
	20	 1	 0.0	 0.0	 0.0	 -32.4698696029	 1	    1.00000	    0.00000	 230.0	 1	    1.10000	    0.90000;
	21	 1	 41.635	 3.343	 0.0	 0.0	 1	    1.00000	    0.00000	 115.0	 1	    1.10000	    0.90000;
	22	 1	 0.0	 0.0	 0.0	 0.0	 1	    1.00000	    0.00000	 230.0	 1	    1.10000	    0.90000;
	23	 1	 0.0	 0.0	 0.0	 0.0	 1	    1.00000	    0.00000	 230.0	 1	    1.10000	    0.90000;
	24	 1	 16.537	 6.275	 0.0	 0.0	 1	    1.00000	    0.00000	 115.0	 1	    1.10000	    0.90000;
	25	 1	 16.971	 5.728	 0.0	 0.0	 1	    1.00000	    0.00000	 115.0	 1	    1.10000	    0.90000;
	26	 1	 6.864	 0.974	 0.0	 0.0	 1	    1.00000	    0.00000	 115.0	 1	    1.10000	    0.90000;
	27	 1	 0.0	 0.0	 0.0	 -177.87890999	 1	    1.00000	    0.00000	 500.0	 1	    1.10000	    0.90000;
	28	 1	 0.0	 0.0	 0.0	 0.0	 1	    1.00000	    0.00000	 230.0	 1	    1.10000	    0.90000;
	29	 1	 0.0	 0.0	 0.0	 0.0	 1	    1.00000	    0.00000	 115.0	 1	    1.10000	    0.90000;
	30	 1	 51.446	 16.534	 0.0	 0.0	 1	    1.00000	    0.00000	 500.0	 1	    1.10000	    0.90000;
	31	 1	 0.0	 0.0	 0.0	 0.0	 1	    1.00000	    0.00000	 230.0	 1	    1.10000	    0.90000;
	32	 1	 0.0	 0.0	 0.0	 0.0	 1	    1.00000	    0.00000	 115.0	 1	    1.10000	    0.90000;
	33	 1	 33.651	 7.709	 0.0	 0.0	 1	    1.00000	    0.00000	 115.0	 1	    1.10000	    0.90000;
	34	 1	 13.859	 8.559	 0.0	 0.0	 1	    1.00000	    0.00000	 115.0	 1	    1.10000	    0.90000;
	35	 1	 0.0	 0.0	 0.0	 0.0	 1	    1.00000	    0.00000	 115.0	 1	    1.10000	    0.90000;
	36	 1	 12.371	 3.516	 0.0	 0.0	 1	    1.00000	    0.00000	 115.0	 1	    1.10000	    0.90000;
	37	 1	 0.0	 0.0	 0.0	 0.0	 1	    1.00000	    0.00000	 230.0	 1	    1.10000	    0.90000;
	38	 1	 0.0	 0.0	 0.0	 0.0	 1	    1.00000	    0.00000	 115.0	 1	    1.10000	    0.90000;
	39	 1	 26.081	 13.265	 0.0	 0.0	 1	    1.00000	    0.00000	 230.0	 1	    1.10000	    0.90000;
	40	 1	 16.729	 3.091	 0.0	 0.0	 1	    1.00000	    0.00000	 115.0	 1	    1.10000	    0.90000;
	41	 1	 15.557	 5.194	 0.0	 0.0	 1	    1.00000	    0.00000	 115.0	 1	    1.10000	    0.90000;
	42	 1	 16.729	 1.116	 0.0	 0.0	 1	    1.00000	    0.00000	 115.0	 1	    1.10000	    0.90000;
	43	 1	 19.24	 7.509	 0.0	 0.0	 1	    1.00000	    0.00000	 115.0	 1	    1.10000	    0.90000;
	44	 1	 15.396	 4.057	 0.0	 0.0	 1	    1.00000	    0.00000	 115.0	 1	    1.10000	    0.90000;
	45	 1	 12.147	 2.921	 0.0	 0.0	 1	    1.00000	    0.00000	 115.0	 1	    1.10000	    0.90000;
	46	 1	 18.201	 4.083	 0.0	 0.0	 1	    1.00000	    0.00000	 115.0	 1	    1.10000	    0.90000;
	47	 1	 9.779	 1.598	 0.0	 -10.4246431476	 1	    1.00000	    0.00000	 115.0	 1	    1.10000	    0.90000;
	48	 1	 16.513	 2.974	 0.0	 0.0	 1	    1.00000	    0.00000	 115.0	 1	    1.10000	    0.90000;
	49	 1	 1.873	 0.657	 0.0	 -5.64253910574	 1	    1.00000	    0.00000	 115.0	 1	    1.10000	    0.90000;
	50	 1	 0.0	 0.0	 0.0	 0.0	 1	    1.00000	    0.00000	 115.0	 1	    1.10000	    0.90000;
	51	 1	 13.089	 3.517	 0.0	 0.0	 1	    1.00000	    0.00000	 115.0	 1	    1.10000	    0.90000;
	52	 1	 26.18	 7.824	 0.0	 0.0	 1	    1.00000	    0.00000	 115.0	 1	    1.10000	    0.90000;
	53	 1	 0.0	 0.0	 0.0	 0.0	 1	    1.00000	    0.00000	 115.0	 1	    1.10000	    0.90000;
	54	 1	 0.0	 0.0	 0.0	 0.0	 1	    1.00000	    0.00000	 115.0	 1	    1.10000	    0.90000;
	55	 1	 24.97	 3.117	 0.0	 0.0	 1	    1.00000	    0.00000	 115.0	 1	    1.10000	    0.90000;
	56	 1	 0.0	 0.0	 0.0	 0.0	 1	    1.00000	    0.00000	 115.0	 1	    1.10000	    0.90000;
	57	 1	 9.407	 1.928	 0.0	 0.0	 1	    1.00000	    0.00000	 115.0	 1	    1.10000	    0.90000;
	58	 1	 20.419	 11.889	 0.0	 0.0	 1	    1.00000	    0.00000	 115.0	 1	    1.10000	    0.90000;
	59	 1	 19.253	 2.164	 0.0	 0.0	 1	    1.00000	    0.00000	 115.0	 1	    1.10000	    0.90000;
	60	 1	 11.049	 5.843	 0.0	 0.0	 1	    1.00000	    0.00000	 115.0	 1	    1.10000	    0.90000;
	61	 1	 11.049	 1.826	 0.0	 0.0	 1	    1.00000	    0.00000	 115.0	 1	    1.10000	    0.90000;
	62	 1	 29.873	 5.286	 0.0	 0.0	 1	    1.00000	    0.00000	 115.0	 1	    1.10000	    0.90000;
	63	 1	 0.0	 0.0	 0.0	 0.0	 1	    1.00000	    0.00000	 230.0	 1	    1.10000	    0.90000;
	64	 1	 0.0	 0.0	 0.0	 0.0	 1	    1.00000	    0.00000	 115.0	 1	    1.10000	    0.90000;
	65	 1	 0.0	 0.0	 0.0	 0.0	 1	    1.00000	    0.00000	 230.0	 1	    1.10000	    0.90000;
	66	 1	 48.284	 8.649	 0.0	 0.0	 1	    1.00000	    0.00000	 230.0	 1	    1.10000	    0.90000;
	67	 1	 13.678	 1.501	 0.0	 0.0	 1	    1.00000	    0.00000	 115.0	 1	    1.10000	    0.90000;
	68	 1	 0.0	 0.0	 0.0	 0.0	 1	    1.00000	    0.00000	 115.0	 1	    1.10000	    0.90000;
	69	 1	 15.208	 3.499	 0.0	 0.0	 1	    1.00000	    0.00000	 115.0	 1	    1.10000	    0.90000;
	70	 1	 18.037	 6.017	 0.0	 0.0	 1	    1.00000	    0.00000	 115.0	 1	    1.10000	    0.90000;
	71	 1	 9.199	 2.42	 0.0	 0.0	 1	    1.00000	    0.00000	 115.0	 1	    1.10000	    0.90000;
	72	 1	 0.0	 0.0	 0.0	 -16.9568583013	 1	    1.00000	    0.00000	 230.0	 1	    1.10000	    0.90000;
	73	 1	 0.0	 0.0	 0.0	 0.0	 1	    1.00000	    0.00000	 115.0	 1	    1.10000	    0.90000;
	74	 1	 18.173	 0.797	 0.0	 0.0	 1	    1.00000	    0.00000	 230.0	 1	    1.10000	    0.90000;
	75	 1	 0.0	 0.0	 0.0	 0.0	 1	    1.00000	    0.00000	 230.0	 1	    1.10000	    0.90000;
	76	 1	 8.166	 1.447	 0.0	 0.0	 1	    1.00000	    0.00000	 115.0	 1	    1.10000	    0.90000;
	77	 1	 23.903	 0.311	 0.0	 0.0	 1	    1.00000	    0.00000	 115.0	 1	    1.10000	    0.90000;
	78	 1	 4.882	 0.839	 0.0	 0.0	 1	    1.00000	    0.00000	 115.0	 1	    1.10000	    0.90000;
	79	 1	 0.0	 0.0	 0.0	 0.0	 1	    1.00000	    0.00000	 230.0	 1	    1.10000	    0.90000;
	80	 1	 0.0	 0.0	 0.0	 0.0	 1	    1.00000	    0.00000	 115.0	 1	    1.10000	    0.90000;
	81	 1	 0.0	 0.0	 0.0	 0.0	 1	    1.00000	    0.00000	 230.0	 1	    1.10000	    0.90000;
	82	 1	 73.316	 6.425	 0.0	 0.0	 1	    1.00000	    0.00000	 230.0	 1	    1.10000	    0.90000;
	83	 1	 0.0	 0.0	 0.0	 0.0	 1	    1.00000	    0.00000	 115.0	 1	    1.10000	    0.90000;
	84	 1	 38.447	 13.753	 0.0	 0.0	 1	    1.00000	    0.00000	 115.0	 1	    1.10000	    0.90000;
	85	 1	 0.0	 0.0	 0.0	 0.0	 1	    1.00000	    0.00000	 115.0	 1	    1.10000	    0.90000;
	86	 1	 4.055	 0.981	 0.0	 0.0	 1	    1.00000	    0.00000	 115.0	 1	    1.10000	    0.90000;
	87	 1	 0.0	 0.0	 0.0	 0.0	 1	    1.00000	    0.00000	 115.0	 1	    1.10000	    0.90000;
	88	 1	 40.284	 30.617	 0.0	 0.0	 1	    1.00000	    0.00000	 115.0	 1	    1.10000	    0.90000;
	89	 1	 0.0	 0.0	 0.0	 0.0	 1	    1.00000	    0.00000	 115.0	 1	    1.10000	    0.90000;
	90	 1	 29.773	 10.282	 0.0	 0.0	 1	    1.00000	    0.00000	 115.0	 1	    1.10000	    0.90000;
	91	 1	 0.0	 0.0	 0.0	 -136.504392464	 1	    1.00000	    0.00000	 500.0	 1	    1.10000	    0.90000;
	92	 1	 0.0	 0.0	 0.0	 0.0	 1	    1.00000	    0.00000	 230.0	 1	    1.10000	    0.90000;
	93	 1	 0.0	 0.0	 0.0	 0.0	 1	    1.00000	    0.00000	 115.0	 1	    1.10000	    0.90000;
	94	 1	 51.779	 17.005	 0.0	 0.0	 1	    1.00000	    0.00000	 500.0	 1	    1.10000	    0.90000;
	95	 1	 0.0	 0.0	 0.0	 0.0	 1	    1.00000	    0.00000	 500.0	 1	    1.10000	    0.90000;
	96	 1	 6.704	 2.726	 0.0	 0.0	 1	    1.00000	    0.00000	 115.0	 1	    1.10000	    0.90000;
	97	 1	 9.819	 2.937	 0.0	 0.0	 1	    1.00000	    0.00000	 115.0	 1	    1.10000	    0.90000;
	98	 1	 21.611	 8.123	 0.0	 0.0	 1	    1.00000	    0.00000	 115.0	 1	    1.10000	    0.90000;
	99	 1	 0.0	 0.0	 0.0	 0.0	 1	    1.00000	    0.00000	 115.0	 1	    1.10000	    0.90000;
	100	 1	 17.886	 4.374	 0.0	 0.0	 1	    1.00000	    0.00000	 115.0	 1	    1.10000	    0.90000;
	101	 1	 12.806	 1.785	 0.0	 0.0	 1	    1.00000	    0.00000	 115.0	 1	    1.10000	    0.90000;
	102	 1	 0.0	 0.0	 0.0	 0.0	 1	    1.00000	    0.00000	 115.0	 1	    1.10000	    0.90000;
	103	 1	 24.077	 3.576	 0.0	 0.0	 1	    1.00000	    0.00000	 115.0	 1	    1.10000	    0.90000;
	104	 1	 44.331	 4.758	 0.0	 0.0	 1	    1.00000	    0.00000	 115.0	 1	    1.10000	    0.90000;
	105	 1	 0.0	 0.0	 0.0	 0.0	 1	    1.00000	    0.00000	 115.0	 1	    1.10000	    0.90000;
	106	 1	 53.16	 28.699	 0.0	 0.0	 1	    1.00000	    0.00000	 115.0	 1	    1.10000	    0.90000;
	107	 1	 0.0	 0.0	 0.0	 0.0	 1	    1.00000	    0.00000	 230.0	 1	    1.10000	    0.90000;
	108	 1	 0.0	 0.0	 0.0	 0.0	 1	    1.00000	    0.00000	 115.0	 1	    1.10000	    0.90000;
	109	 1	 66.981	 8.48	 0.0	 0.0	 1	    1.00000	    0.00000	 230.0	 1	    1.10000	    0.90000;
	110	 1	 0.0	 0.0	 0.0	 0.0	 1	    1.00000	    0.00000	 230.0	 1	    1.10000	    0.90000;
	111	 1	 9.581	 2.553	 0.0	 0.0	 1	    1.00000	    0.00000	 115.0	 1	    1.10000	    0.90000;
	112	 1	 22.158	 8.712	 0.0	 0.0	 1	    1.00000	    0.00000	 115.0	 1	    1.10000	    0.90000;
	113	 1	 70.095	 21.299	 0.0	 0.0	 1	    1.00000	    0.00000	 115.0	 1	    1.10000	    0.90000;
	114	 1	 69.45	 25.104	 0.0	 0.0	 1	    1.00000	    0.00000	 115.0	 1	    1.10000	    0.90000;
	115	 1	 0.0	 0.0	 0.0	 0.0	 1	    1.00000	    0.00000	 230.0	 1	    1.10000	    0.90000;
	116	 1	 54.257	 11.308	 0.0	 0.0	 1	    1.00000	    0.00000	 115.0	 1	    1.10000	    0.90000;
	117	 1	 0.0	 0.0	 0.0	 0.0	 1	    1.00000	    0.00000	 230.0	 1	    1.10000	    0.90000;
	118	 1	 0.0	 0.0	 0.0	 0.0	 1	    1.00000	    0.00000	 230.0	 1	    1.10000	    0.90000;
	119	 1	 15.964	 7.503	 0.0	 0.0	 1	    1.00000	    0.00000	 115.0	 1	    1.10000	    0.90000;
	120	 1	 0.0	 0.0	 0.0	 0.0	 1	    1.00000	    0.00000	 115.0	 1	    1.10000	    0.90000;
	121	 1	 24.551	 10.578	 0.0	 0.0	 1	    1.00000	    0.00000	 115.0	 1	    1.10000	    0.90000;
	122	 1	 6.74	 1.068	 0.0	 0.0	 1	    1.00000	    0.00000	 115.0	 1	    1.10000	    0.90000;
	123	 1	 6.593	 1.944	 0.0	 0.0	 1	    1.00000	    0.00000	 115.0	 1	    1.10000	    0.90000;
	124	 1	 28.506	 7.311	 0.0	 0.0	 1	    1.00000	    0.00000	 115.0	 1	    1.10000	    0.90000;
	125	 1	 46.107	 16.005	 0.0	 0.0	 1	    1.00000	    0.00000	 115.0	 1	    1.10000	    0.90000;
	126	 1	 26.062	 9.396	 0.0	 0.0	 1	    1.00000	    0.00000	 115.0	 1	    1.10000	    0.90000;
	127	 1	 12.277	 1.648	 0.0	 0.0	 1	    1.00000	    0.00000	 115.0	 1	    1.10000	    0.90000;
	128	 1	 0.0	 0.0	 0.0	 0.0	 1	    1.00000	    0.00000	 115.0	 1	    1.10000	    0.90000;
	129	 1	 7.718	 8.553	 0.0	 0.0	 1	    1.00000	    0.00000	 115.0	 1	    1.10000	    0.90000;
	130	 1	 0.0	 0.0	 0.0	 0.0	 1	    1.00000	    0.00000	 230.0	 1	    1.10000	    0.90000;
	131	 1	 48.817	 10.676	 0.0	 0.0	 1	    1.00000	    0.00000	 115.0	 1	    1.10000	    0.90000;
	132	 1	 0.0	 0.0	 0.0	 0.0	 1	    1.00000	    0.00000	 230.0	 1	    1.10000	    0.90000;
	133	 1	 0.0	 0.0	 0.0	 0.0	 1	    1.00000	    0.00000	 230.0	 1	    1.10000	    0.90000;
	134	 1	 0.0	 0.0	 0.0	 0.0	 1	    1.00000	    0.00000	 115.0	 1	    1.10000	    0.90000;
	135	 1	 31.089	 5.445	 0.0	 0.0	 1	    1.00000	    0.00000	 230.0	 1	    1.10000	    0.90000;
	136	 1	 15.508	 3.491	 0.0	 0.0	 1	    1.00000	    0.00000	 115.0	 1	    1.10000	    0.90000;
	137	 1	 14.693	 4.74	 0.0	 0.0	 1	    1.00000	    0.00000	 115.0	 1	    1.10000	    0.90000;
	138	 1	 0.0	 0.0	 0.0	 0.0	 1	    1.00000	    0.00000	 115.0	 1	    1.10000	    0.90000;
	139	 1	 14.427	 4.536	 0.0	 0.0	 1	    1.00000	    0.00000	 115.0	 1	    1.10000	    0.90000;
	140	 1	 11.198	 6.382	 0.0	 0.0	 1	    1.00000	    0.00000	 115.0	 1	    1.10000	    0.90000;
	141	 1	 12.223	 8.617	 0.0	 0.0	 1	    1.00000	    0.00000	 115.0	 1	    1.10000	    0.90000;
	142	 1	 5.649	 4.233	 0.0	 0.0	 1	    1.00000	    0.00000	 115.0	 1	    1.10000	    0.90000;
	143	 1	 14.305	 2.313	 0.0	 0.0	 1	    1.00000	    0.00000	 115.0	 1	    1.10000	    0.90000;
	144	 1	 0.0	 0.0	 0.0	 0.0	 1	    1.00000	    0.00000	 115.0	 1	    1.10000	    0.90000;
	145	 1	 15.694	 1.312	 0.0	 0.0	 1	    1.00000	    0.00000	 115.0	 1	    1.10000	    0.90000;
	146	 1	 0.0	 0.0	 0.0	 0.0	 1	    1.00000	    0.00000	 115.0	 1	    1.10000	    0.90000;
	147	 1	 7.62	 0.982	 0.0	 0.0	 1	    1.00000	    0.00000	 115.0	 1	    1.10000	    0.90000;
	148	 1	 19.416	 6.757	 0.0	 0.0	 1	    1.00000	    0.00000	 115.0	 1	    1.10000	    0.90000;
	149	 1	 0.0	 0.0	 0.0	 0.0	 1	    1.00000	    0.00000	 115.0	 1	    1.10000	    0.90000;
	150	 1	 3.671	 0.314	 0.0	 0.0	 1	    1.00000	    0.00000	 115.0	 1	    1.10000	    0.90000;
	151	 1	 11.99	 2.544	 0.0	 0.0	 1	    1.00000	    0.00000	 115.0	 1	    1.10000	    0.90000;
	152	 1	 13.036	 8.096	 0.0	 0.0	 1	    1.00000	    0.00000	 115.0	 1	    1.10000	    0.90000;
	153	 1	 7.742	 1.817	 0.0	 0.0	 1	    1.00000	    0.00000	 115.0	 1	    1.10000	    0.90000;
	154	 1	 5.341	 2.089	 0.0	 0.0	 1	    1.00000	    0.00000	 115.0	 1	    1.10000	    0.90000;
	155	 1	 8.139	 3.41	 0.0	 0.0	 1	    1.00000	    0.00000	 115.0	 1	    1.10000	    0.90000;
	156	 1	 0.0	 0.0	 0.0	 0.0	 1	    1.00000	    0.00000	 115.0	 1	    1.10000	    0.90000;
	157	 1	 6.932	 1.099	 0.0	 0.0	 1	    1.00000	    0.00000	 115.0	 1	    1.10000	    0.90000;
	158	 1	 5.811	 2.402	 0.0	 0.0	 1	    1.00000	    0.00000	 115.0	 1	    1.10000	    0.90000;
	159	 1	 12.173	 4.954	 0.0	 0.0	 1	    1.00000	    0.00000	 115.0	 1	    1.10000	    0.90000;
	160	 1	 0.0	 0.0	 0.0	 0.0	 1	    1.00000	    0.00000	 230.0	 1	    1.10000	    0.90000;
	161	 1	 0.0	 0.0	 0.0	 0.0	 1	    1.00000	    0.00000	 115.0	 1	    1.10000	    0.90000;
	162	 1	 24.068	 7.427	 0.0	 0.0	 1	    1.00000	    0.00000	 230.0	 1	    1.10000	    0.90000;
	163	 1	 0.0	 0.0	 0.0	 0.0	 1	    1.00000	    0.00000	 230.0	 1	    1.10000	    0.90000;
	164	 1	 11.745	 3.214	 0.0	 0.0	 1	    1.00000	    0.00000	 115.0	 1	    1.10000	    0.90000;
	165	 1	 19.057	 2.366	 0.0	 0.0	 1	    1.00000	    0.00000	 115.0	 1	    1.10000	    0.90000;
	166	 1	 0.0	 0.0	 0.0	 0.0	 1	    1.00000	    0.00000	 115.0	 1	    1.10000	    0.90000;
	167	 1	 0.0	 0.0	 0.0	 0.0	 1	    1.00000	    0.00000	 115.0	 1	    1.10000	    0.90000;
	168	 1	 18.694	 6.364	 0.0	 0.0	 1	    1.00000	    0.00000	 115.0	 1	    1.10000	    0.90000;
	169	 1	 18.694	 5.794	 0.0	 0.0	 1	    1.00000	    0.00000	 115.0	 1	    1.10000	    0.90000;
	170	 1	 0.0	 0.0	 0.0	 0.0	 1	    1.00000	    0.00000	 115.0	 1	    1.10000	    0.90000;
	171	 1	 18.936	 6.123	 0.0	 0.0	 1	    1.00000	    0.00000	 115.0	 1	    1.10000	    0.90000;
	172	 1	 0.0	 0.0	 0.0	 0.0	 1	    1.00000	    0.00000	 230.0	 1	    1.10000	    0.90000;
	173	 1	 0.0	 0.0	 0.0	 0.0	 1	    1.00000	    0.00000	 115.0	 1	    1.10000	    0.90000;
	174	 1	 18.694	 6.267	 0.0	 -6.67443540647	 1	    1.00000	    0.00000	 230.0	 1	    1.10000	    0.90000;
	175	 1	 19.265	 5.336	 0.0	 0.0	 1	    1.00000	    0.00000	 115.0	 1	    1.10000	    0.90000;
	176	 1	 0.0	 0.0	 0.0	 0.0	 1	    1.00000	    0.00000	 115.0	 1	    1.10000	    0.90000;
	177	 1	 7.515	 2.002	 0.0	 0.0	 1	    1.00000	    0.00000	 115.0	 1	    1.10000	    0.90000;
	178	 1	 0.0	 0.0	 0.0	 0.0	 1	    1.00000	    0.00000	 230.0	 1	    1.10000	    0.90000;
	179	 1	 20.961	 4.285	 0.0	 0.0	 1	    1.00000	    0.00000	 115.0	 1	    1.10000	    0.90000;
	180	 1	 0.0	 0.0	 0.0	 0.0	 1	    1.00000	    0.00000	 230.0	 1	    1.10000	    0.90000;
	181	 1	 0.0	 0.0	 0.0	 0.0	 1	    1.00000	    0.00000	 230.0	 1	    1.10000	    0.90000;
	182	 1	 9.136	 0.53	 0.0	 0.0	 1	    1.00000	    0.00000	 115.0	 1	    1.10000	    0.90000;
	183	 1	 0.0	 0.0	 0.0	 8.9500529104	 1	    1.00000	    0.00000	 115.0	 1	    1.10000	    0.90000;
	184	 1	 5.728	 2.825	 0.0	 0.0	 1	    1.00000	    0.00000	 115.0	 1	    1.10000	    0.90000;
	185	 1	 13.467	 5.902	 0.0	 0.0	 1	    1.00000	    0.00000	 115.0	 1	    1.10000	    0.90000;
	186	 1	 13.467	 7.018	 0.0	 0.0	 1	    1.00000	    0.00000	 115.0	 1	    1.10000	    0.90000;
	187	 1	 0.0	 0.0	 0.0	 0.0	 1	    1.00000	    0.00000	 115.0	 1	    1.10000	    0.90000;
	188	 1	 18.698	 7.993	 0.0	 0.0	 1	    1.00000	    0.00000	 115.0	 1	    1.10000	    0.90000;
	189	 1	 11.778	 0.834	 0.0	 0.0	 1	    1.00000	    0.00000	 115.0	 1	    1.10000	    0.90000;
	190	 1	 5.44	 1.383	 0.0	 0.0	 1	    1.00000	    0.00000	 115.0	 1	    1.10000	    0.90000;
	191	 1	 6.038	 3.119	 0.0	 0.0	 1	    1.00000	    0.00000	 115.0	 1	    1.10000	    0.90000;
	192	 1	 17.094	 3.107	 0.0	 0.0	 1	    1.00000	    0.00000	 115.0	 1	    1.10000	    0.90000;
	193	 1	 16.615	 4.755	 0.0	 -14.9365168743	 1	    1.00000	    0.00000	 115.0	 1	    1.10000	    0.90000;
	194	 1	 0.0	 0.0	 0.0	 127.5611999	 1	    1.00000	    0.00000	 230.0	 1	    1.10000	    0.90000;
	195	 1	 52.722	 17.715	 0.0	 0.0	 1	    1.00000	    0.00000	 115.0	 1	    1.10000	    0.90000;
	196	 1	 0.0	 0.0	 0.0	 0.0	 1	    1.00000	    0.00000	 230.0	 1	    1.10000	    0.90000;
	197	 1	 17.904	 3.79	 0.0	 0.0	 1	    1.00000	    0.00000	 115.0	 1	    1.10000	    0.90000;
	198	 1	 0.0	 0.0	 0.0	 0.0	 1	    1.00000	    0.00000	 230.0	 1	    1.10000	    0.90000;
	199	 1	 0.0	 0.0	 0.0	 0.0	 1	    1.00000	    0.00000	 115.0	 1	    1.10000	    0.90000;
	200	 1	 33.012	 12.135	 0.0	 0.0	 1	    1.00000	    0.00000	 230.0	 1	    1.10000	    0.90000;
...
];

%% generator data
%	bus	Pg	Qg	Qmax	Qmin	Vg	mBase	status	Pmax	Pmin
mpc.gen = [
	2275	 62.6615	 19.005	 48.61	 -10.6	 1.0	 95.5	 1	 95.5	 29.823;
	2276	 67.5395	 19.005	 48.61	 -10.6	 1.0	 95.5	 1	 95.5	 39.579;
	2277	 53.6425	 19.005	 48.61	 -10.6	 1.0	 95.5	 1	 95.5	 11.785;
	2278	 53.4115	 19.005	 48.61	 -10.6	 1.0	 95.5	 1	 95.5	 11.323;
	2279	 59.0275	 19.005	 48.61	 -10.6	 1.0	 95.5	 1	 95.5	 22.555;
	2280	 57.3245	 19.005	 48.61	 -10.6	 1.0	 95.5	 1	 95.5	 19.149;
	2285	 129.7165	 6.9345	 42.813	 -28.944	 1.0	 201.0	 1	 201.0	 58.433;
	2289	 5.141	 1.3075	 3.542	 -0.927	 1.0	 7.6	 1	 7.6	 2.682;
	2289	 3.1035	 0.8085	 2.19	 -0.573	 1.0	 4.7	 1	 4.7	 1.507;
	2290	 1.2615	 0.2985	 0.808	 -0.211	 1.0	 1.73	 1	 1.733	 0.79;
	2290	 1.035	 0.2985	 0.808	 -0.211	 1.0	 1.73	 1	 1.733	 0.337;
	2291	 1.158	 0.2985	 0.808	 -0.211	 1.0	 1.73	 1	 1.733	 0.583;
	2291	 1.291	 0.2985	 0.808	 -0.211	 1.0	 1.73	 1	 1.733	 0.849;
	2292	 1.0245	 0.2985	 0.808	 -0.211	 1.0	 1.73	 1	 1.733	 0.316;
	2293	 1.139	 0.2985	 0.808	 -0.211	 1.0	 1.73	 1	 1.733	 0.545;
	2294	 1.0135	 0.2755	 0.746	 -0.195	 1.0	 1.6	 1	 1.6	 0.427;
	2294	 1.0145	 0.2755	 0.746	 -0.195	 1.0	 1.6	 1	 1.6	 0.429;
	2295	 0.9775	 0.258	 0.699	 -0.183	 1.0	 1.5	 1	 1.5	 0.455;
	2295	 0.7805	 0.2405	 0.652	 -0.171	 1.0	 1.4	 1	 1.4	 0.161;
	2296	 0.369	 0.086	 0.233	 -0.061	 1.0	 0.5	 1	 0.5	 0.238;
	2302	 202.601	 58.506	 149.646	 -32.634	 1.0	 294.0	 1	 294.0	 111.202;
	2303	 190.8575	 58.506	 149.646	 -32.634	 1.0	 294.0	 1	 294.0	 87.715;
	2304	 183.5835	 58.506	 149.646	 -32.634	 1.0	 294.0	 1	 294.0	 73.167;
	2310	 0.0	 0.0	 290.038	 -75.933	 1.0	 622.4	 0	 622.4	 274.004;
	2315	 81.4205	 22.387	 57.262	 -12.488	 1.0	 112.5	 1	 112.5	 50.341;
	2316	 74.5115	 22.387	 57.262	 -12.488	 1.0	 112.5	 1	 112.5	 36.523;
	2317	 79.9875	 22.387	 57.262	 -12.488	 1.0	 112.5	 1	 112.5	 47.475;
	2318	 63.797	 22.387	 57.262	 -12.488	 1.0	 112.5	 1	 112.5	 15.094;
	2323	 93.0875	 5.5545	 34.293	 -23.184	 1.0	 161.0	 1	 161.0	 25.175;
	2327	 70.421	 3.4915	 21.556	 -14.573	 1.0	 101.2	 1	 101.2	 39.642;
	2332	 118.792	 36.4835	 93.317	 -20.35	 1.0	 183.33	 1	 183.333	 54.251;
	2333	 134.281	 36.4835	 93.317	 -20.35	 1.0	 183.33	 1	 183.333	 85.229;
	2334	 126.588	 36.4835	 93.317	 -20.35	 1.0	 183.33	 1	 183.333	 69.843;
	2340	 0.0	 0.0	 336.452	 -88.084	 1.0	 722.0	 0	 722.0	 187.779;
	2341	 0.0	 0.0	 336.452	 -88.084	 1.0	 722.0	 0	 722.0	 295.436;
	2346	 51.5395	 17.791	 45.505	 -9.923	 1.0	 89.4	 1	 89.4	 13.679;
	2347	 55.1645	 17.791	 45.505	 -9.923	 1.0	 89.4	 1	 89.4	 20.929;
	2348	 53.8775	 17.791	 45.505	 -9.923	 1.0	 89.4	 1	 89.4	 18.355;
	2349	 63.139	 17.791	 45.505	 -9.923	 1.0	 89.4	 1	 89.4	 36.878;
	2350	 57.487	 17.791	 45.505	 -9.923	 1.0	 89.4	 1	 89.4	 25.574;
	2351	 65.3425	 17.791	 45.505	 -9.923	 1.0	 89.4	 1	 89.4	 41.285;
	2352	 0.2735	 0.0865	 0.221	 -0.048	 1.0	 0.43	 1	 0.433	 0.114;
	2353	 0.3035	 0.0865	 0.221	 -0.048	 1.0	 0.43	 1	 0.433	 0.174;
	2353	 0.322	 0.0865	 0.221	 -0.048	 1.0	 0.43	 1	 0.433	 0.211;
	2358	 9.0645	 3.139	 8.029	 -1.751	 1.0	 15.77	 1	 15.775	 2.354;
	2358	 11.826	 3.139	 8.029	 -1.751	 1.0	 15.77	 1	 15.775	 7.877;
	2359	 10.564	 3.139	 8.029	 -1.751	 1.0	 15.77	 1	 15.775	 5.353;
	2360	 10.255	 3.139	 8.029	 -1.751	 1.0	 15.77	 1	 15.775	 4.735;
	2364	 99.9865	 35.521	 90.856	 -19.814	 1.0	 178.5	 1	 178.5	 21.473;
	2365	 114.019	 35.521	 90.856	 -19.814	 1.0	 178.5	 1	 178.5	 49.538;
	2366	 117.6955	 35.521	 90.856	 -19.814	 1.0	 178.5	 1	 178.5	 56.891;
	2371	 141.285	 48.437	 123.891	 -27.017	 1.0	 243.4	 1	 243.4	 39.17;
	2372	 161.063	 48.437	 123.891	 -27.017	 1.0	 243.4	 1	 243.4	 78.726;
	2373	 178.138	 48.437	 123.891	 -27.017	 1.0	 243.4	 1	 243.4	 112.876;
	2376	 2.0545	 0.6865	 1.756	 -0.383	 1.0	 3.45	 1	 3.45	 0.659;
	2376	 2.468	 0.6865	 1.756	 -0.383	 1.0	 3.45	 1	 3.45	 1.486;
	2376	 3.287	 0.995	 2.545	 -0.555	 1.0	 5.0	 1	 5.0	 1.574;
	2376	 28.5935	 9.552	 24.432	 -5.328	 1.0	 48.0	 1	 48.0	 9.187;
	2379	 26.4945	 74.3045	 148.609	 0.0	 1.0	 39.6	 1	 39.6	 13.389;
	2384	 79.8055	 25.87	 66.17	 -14.43	 1.0	 130.0	 1	 130.0	 29.611;
	2385	 82.8875	 25.87	 66.17	 -14.43	 1.0	 130.0	 1	 130.0	 35.775;
	2390	 97.9315	 31.024	 79.353	 -17.305	 1.0	 155.9	 1	 155.9	 39.963;
	2391	 102.8945	 31.024	 79.353	 -17.305	 1.0	 155.9	 1	 155.9	 49.889;
	2392	 88.465	 31.024	 79.353	 -17.305	 1.0	 155.9	 1	 155.9	 21.03;
	2397	 0.0	 0.0	 335.986	 -87.962	 1.0	 721.0	 0	 721.0	 77.142;
	2401	 2.021	 0.536	 1.229	 -0.157	 1.0	 3.2	 1	 3.2	 0.842;
	2401	 2.2985	 0.536	 1.229	 -0.157	 1.0	 3.2	 1	 3.2	 1.397;
	2401	 2.219	 0.536	 1.229	 -0.157	 1.0	 3.2	 1	 3.2	 1.238;
	2401	 20.263	 5.5275	 12.672	 -1.617	 1.0	 33.0	 1	 33.0	 7.526;
	2401	 20.4725	 5.5275	 12.672	 -1.617	 1.0	 33.0	 1	 33.0	 7.945;
	2404	 45.741	 2.6305	 16.241	 -10.98	 1.0	 76.25	 1	 76.25	 15.232;
	2404	 49.1675	 2.6305	 16.241	 -10.98	 1.0	 76.25	 1	 76.25	 22.085;
	2409	 15.83	 5.572	 14.252	 -3.108	 1.0	 28.0	 1	 28.0	 3.66;
	2409	 16.114	 5.572	 14.252	 -3.108	 1.0	 28.0	 1	 28.0	 4.228;
	2410	 18.26	 5.572	 14.252	 -3.108	 1.0	 28.0	 1	 28.0	 8.52;
	2411	 18.805	 5.572	 14.252	 -3.108	 1.0	 28.0	 1	 28.0	 9.61;
	2411	 15.8465	 5.572	 14.252	 -3.108	 1.0	 28.0	 1	 28.0	 3.693;
	2412	 16.0345	 5.572	 14.252	 -3.108	 1.0	 28.0	 1	 28.0	 4.069;
	2416	 20.541	 5.632	 14.405	 -3.141	 1.0	 28.3	 1	 28.3	 12.782;
	2416	 18.2115	 5.632	 14.405	 -3.141	 1.0	 28.3	 1	 28.3	 8.123;
	2417	 21.162	 5.632	 14.405	 -3.141	 1.0	 28.3	 1	 28.3	 14.024;
	2417	 15.821	 5.632	 14.405	 -3.141	 1.0	 28.3	 1	 28.3	 3.342;
	2418	 18.973	 5.632	 14.405	 -3.141	 1.0	 28.3	 1	 28.3	 9.646;
	2418	 17.765	 5.632	 14.405	 -3.141	 1.0	 28.3	 1	 28.3	 7.23;
	2423	 34.869	 12.139	 31.049	 -6.771	 1.0	 61.0	 1	 61.0	 8.738;
	2424	 14.083	 4.776	 12.216	 -2.664	 1.0	 24.0	 1	 24.0	 4.166;
	2428	 180.4305	 49.4845	 126.571	 -27.602	 1.0	 248.67	 1	 248.667	 112.194;
	2429	 168.8195	 49.4845	 126.571	 -27.602	 1.0	 248.67	 1	 248.667	 88.972;
	2430	 166.0435	 49.4845	 126.571	 -27.602	 1.0	 248.67	 1	 248.667	 83.42;
	2433	 50.8625	 17.791	 45.505	 -9.923	 1.0	 89.4	 1	 89.4	 12.325;
	2433	 52.332	 17.791	 45.505	 -9.923	 1.0	 89.4	 1	 89.4	 15.264;
	2433	 56.66	 17.791	 45.505	 -9.923	 1.0	 89.4	 1	 89.4	 23.92;
	2433	 62.86	 17.791	 45.505	 -9.923	 1.0	 89.4	 1	 89.4	 36.32;
	2433	 50.065	 17.791	 45.505	 -9.923	 1.0	 89.4	 1	 89.4	 10.73;
	2441	 110.8295	 33.4985	 85.682	 -18.685	 1.0	 168.33	 1	 168.333	 53.326;
	2442	 108.499	 33.4985	 85.682	 -18.685	 1.0	 168.33	 1	 168.333	 48.665;
	2443	 121.871	 33.4985	 85.682	 -18.685	 1.0	 168.33	 1	 168.333	 75.409;
	2449	 226.0585	 66.931	 169.088	 -35.226	 1.0	 317.35	 1	 317.35	 134.767;
	2450	 215.5345	 32.704	 100.634	 -35.226	 1.0	 317.35	 1	 317.35	 113.719;
	2455	 92.504	 26.228	 67.086	 -14.63	 1.0	 131.8	 1	 131.8	 53.208;
	2456	 95.511	 26.228	 67.086	 -14.63	 1.0	 131.8	 1	 131.8	 59.222;
	2459	 14.707	 4.378	 11.198	 -2.442	 1.0	 22.0	 1	 22.0	 7.414;
	2459	 13.252	 4.378	 11.198	 -2.442	 1.0	 22.0	 1	 22.0	 4.504;
	2459	 15.9775	 4.378	 11.198	 -2.442	 1.0	 22.0	 1	 22.0	 9.955;
	2464	 62.0575	 19.24	 49.212	 -10.732	 1.0	 96.68	 1	 96.683	 27.432;
	2465	 62.445	 19.24	 49.212	 -10.732	 1.0	 96.68	 1	 96.683	 28.207;
	2466	 63.74	 19.24	 49.212	 -10.732	 1.0	 96.68	 1	 96.683	 30.797;
	2467	 63.5135	 19.24	 49.212	 -10.732	 1.0	 96.68	 1	 96.683	 30.344;
	2468	 64.81	 19.24	 49.212	 -10.732	 1.0	 96.68	 1	 96.683	 32.937;
	2469	 69.8775	 19.24	 49.212	 -10.732	 1.0	 96.68	 1	 96.683	 43.072;
	2473	 44.078	 15.1535	 38.76	 -8.453	 1.0	 76.15	 1	 76.15	 12.006;
	2473	 49.2205	 15.1535	 38.76	 -8.453	 1.0	 76.15	 1	 76.15	 22.291;
	2473	 56.087	 15.1535	 38.76	 -8.453	 1.0	 76.15	 1	 76.15	 36.024;
	2473	 43.246	 15.1535	 38.76	 -8.453	 1.0	 76.15	 1	 76.15	 10.342;
	2477	 24.353	 7.562	 19.342	 -4.218	 1.0	 38.0	 1	 38.0	 10.706;
	2481	 115.0935	 5.872	 36.253	 -24.509	 1.0	 170.2	 1	 170.2	 59.987;
	2486	 163.1075	 44.815	 114.627	 -24.997	 1.0	 225.2	 1	 225.2	 101.015;
	2487	 146.4825	 44.815	 114.627	 -24.997	 1.0	 225.2	 1	 225.2	 67.765;
	2488	 152.682	 44.815	 114.627	 -24.997	 1.0	 225.2	 1	 225.2	 80.164;
	2493	 101.699	 5.175	 31.95	 -21.6	 1.0	 150.0	 1	 150.0	 53.398;
	2499	 117.4255	 6.21	 38.34	 -25.92	 1.0	 180.0	 1	 180.0	 54.851;
	2500	 5.633	 0.3105	 1.917	 -1.296	 1.0	 9.0	 1	 9.0	 2.266;
	2506	 119.9925	 32.119	 82.153	 -17.915	 1.0	 161.4	 1	 161.4	 78.585;
	2507	 106.9025	 32.119	 82.153	 -17.915	 1.0	 161.4	 1	 161.4	 52.405;
	2508	 106.6125	 32.119	 82.153	 -17.915	 1.0	 161.4	 1	 161.4	 51.825;
	2509	 111.0695	 32.119	 82.153	 -17.915	 1.0	 161.4	 1	 161.4	 60.739;
	2510	 117.82	 32.119	 82.153	 -17.915	 1.0	 161.4	 1	 161.4	 74.24;
	2515	 153.337	 41.0405	 104.973	 -22.892	 1.0	 206.23	 1	 206.233	 100.441;
	2516	 148.554	 41.0405	 104.973	 -22.892	 1.0	 206.23	 1	 206.233	 90.875;
	2517	 151.3125	 41.0405	 104.973	 -22.892	 1.0	 206.23	 1	 206.233	 96.392;
	2521	 39.0095	 2.3325	 14.399	 -9.734	 1.0	 67.6	 1	 67.6	 10.419;
	2526	 102.6485	 30.845	 78.895	 -17.205	 1.0	 155.0	 1	 155.0	 50.297;
	2527	 87.6085	 30.845	 78.895	 -17.205	 1.0	 155.0	 1	 155.0	 20.217;
	2531	 16.695	 0.0	 0.0	 0.0	 1.0	 30.0	 1	 30.0	 3.39;
	2531	 0.9745	 0.0	 0.0	 0.0	 1.0	 1.4	 1	 1.4	 0.549;
	2536	 41.868	 11.741	 30.031	 -6.549	 1.0	 59.0	 1	 59.0	 24.736;
	2537	 35.8405	 11.741	 30.031	 -6.549	 1.0	 59.0	 1	 59.0	 12.681;
	2538	 38.3715	 11.741	 30.031	 -6.549	 1.0	 59.0	 1	 59.0	 17.743;
	2539	 42.7555	 11.741	 30.031	 -6.549	 1.0	 59.0	 1	 59.0	 26.511;
	2544	 120.8375	 30.0315	 81.364	 -21.301	 1.0	 174.6	 1	 174.6	 67.075;
	2545	 108.4295	 30.0315	 81.364	 -21.301	 1.0	 174.6	 1	 174.6	 42.259;
	2548	 17.143	 5.552	 14.201	 -3.097	 1.0	 27.9	 1	 27.9	 6.386;
	2549	 15.7005	 5.552	 14.201	 -3.097	 1.0	 27.9	 1	 27.9	 3.501;
	2549	 20.537	 5.552	 14.201	 -3.097	 1.0	 27.9	 1	 27.9	 13.174;
	2549	 18.6995	 5.552	 14.201	 -3.097	 1.0	 27.9	 1	 27.9	 9.499;
	2549	 19.7105	 5.552	 14.201	 -3.097	 1.0	 27.9	 1	 27.9	 11.521;
	2549	 19.2055	 5.552	 14.201	 -3.097	 1.0	 27.9	 1	 27.9	 10.511;
	2554	 89.3135	 26.248	 67.137	 -14.641	 1.0	 131.9	 1	 131.9	 46.727;
	2555	 98.6265	 26.248	 67.137	 -14.641	 1.0	 131.9	 1	 131.9	 65.353;
	2556	 79.849	 26.248	 67.137	 -14.641	 1.0	 131.9	 1	 131.9	 27.798;
	2557	 82.33	 26.248	 67.137	 -14.641	 1.0	 131.9	 1	 131.9	 32.76;
	2563	 878.8745	 173.745	 447.12	 -99.63	 1.0	 1215.0	 1	 1215.0	 542.749;
	2564	 705.927	 173.745	 447.12	 -99.63	 1.0	 1215.0	 1	 1215.0	 196.854;
	2567	 48.3115	 14.328	 36.648	 -7.992	 1.0	 72.0	 1	 72.0	 24.623;
	2567	 52.248	 14.328	 36.648	 -7.992	 1.0	 72.0	 1	 72.0	 32.496;
	2567	 40.297	 14.328	 36.648	 -7.992	 1.0	 72.0	 1	 72.0	 8.594;
	2567	 46.453	 14.328	 36.648	 -7.992	 1.0	 72.0	 1	 72.0	 20.906;
	2567	 51.493	 14.328	 36.648	 -7.992	 1.0	 72.0	 1	 72.0	 30.986;
	2567	 46.2715	 14.328	 36.648	 -7.992	 1.0	 72.0	 1	 72.0	 20.543;
	2573	 201.2465	 9.591	 59.214	 -40.032	 1.0	 278.0	 1	 278.0	 124.493;
	2578	 92.9685	 5.175	 31.95	 -21.6	 1.0	 150.0	 1	 150.0	 35.937;
	2583	 243.89	 64.715	 165.527	 -36.097	 1.0	 325.2	 1	 325.2	 162.58;
	2584	 195.8165	 64.715	 165.527	 -36.097	 1.0	 325.2	 1	 325.2	 66.433;
	2588	 144.618	 8.0215	 49.523	 -33.48	 1.0	 232.5	 1	 232.5	 56.736;
	2591	 52.8495	 2.777	 17.146	 -11.592	 1.0	 80.5	 1	 80.5	 25.199;
	2594	 54.771	 2.7465	 16.955	 -11.462	 1.0	 79.6	 1	 79.6	 29.942;
	2598	 13.474	 4.0295	 10.307	 -2.248	 1.0	 20.25	 1	 20.25	 6.698;
	2598	 12.2065	 4.0295	 10.307	 -2.248	 1.0	 20.25	 1	 20.25	 4.163;
	2604	 137.663	 6.9	 42.6	 -28.8	 1.0	 200.0	 1	 200.0	 75.326;
	2611	 251.8135	 77.968	 199.426	 -43.49	 1.0	 391.8	 1	 391.8	 111.827;
	2612	 290.3725	 77.968	 199.426	 -43.49	 1.0	 391.8	 1	 391.8	 188.945;
	2613	 246.5175	 77.968	 199.426	 -43.49	 1.0	 391.8	 1	 391.8	 101.235;
	2617	 12.188	 3.685	 8.448	 -1.078	 1.0	 22.0	 1	 22.0	 2.376;
	2617	 14.2435	 3.685	 8.448	 -1.078	 1.0	 22.0	 1	 22.0	 6.487;
	2623	 0.0	 0.0	 307.56	 -80.52	 1.0	 660.0	 0	 660.0	 227.696;
	2624	 0.0	 0.0	 307.56	 -80.52	 1.0	 660.0	 0	 660.0	 113.593;
	2625	 0.0	 0.0	 307.56	 -80.52	 1.0	 660.0	 0	 660.0	 177.006;
	2630	 205.8935	 9.957	 61.472	 -41.558	 1.0	 288.6	 1	 288.6	 123.187;
	2635	 166.8715	 8.3145	 51.333	 -34.704	 1.0	 241.0	 1	 241.0	 92.743;
	2638	 33.0125	 2.0285	 12.524	 -8.467	 1.0	 58.8	 1	 58.8	 7.225;
	2644	 94.332	 5.714	 35.278	 -23.85	 1.0	 165.63	 1	 165.625	 23.039;
	2645	 112.195	 5.714	 35.278	 -23.85	 1.0	 165.63	 1	 165.625	 58.765;
	2646	 105.1805	 5.714	 35.278	 -23.85	 1.0	 165.63	 1	 165.625	 44.736;
	2647	 92.315	 5.714	 35.278	 -23.85	 1.0	 165.63	 1	 165.625	 19.005;
	2651	 98.3255	 31.4885	 80.541	 -17.564	 1.0	 158.23	 1	 158.233	 38.418;
	2652	 112.487	 31.4885	 80.541	 -17.564	 1.0	 158.23	 1	 158.233	 66.741;
	2653	 91.415	 31.4885	 80.541	 -17.564	 1.0	 158.23	 1	 158.233	 24.597;
	2657	 88.5845	 4.3645	 26.945	 -18.216	 1.0	 126.5	 1	 126.5	 50.669;
	2662	 146.684	 6.7965	 41.961	 -28.368	 1.0	 197.0	 1	 197.0	 96.368;
	2665	 52.792	 2.698	 16.657	 -11.261	 1.0	 78.2	 1	 78.2	 27.384;
	2669	 134.9585	 36.5695	 93.537	 -20.398	 1.0	 183.77	 1	 183.767	 86.15;
	2670	 127.9265	 36.5695	 93.537	 -20.398	 1.0	 183.77	 1	 183.767	 72.086;
	2671	 102.4915	 36.5695	 93.537	 -20.398	 1.0	 183.77	 1	 183.767	 21.216;
	2677	 108.056	 37.0805	 94.844	 -20.683	 1.0	 186.33	 1	 186.333	 29.779;
	2678	 137.307	 37.0805	 94.844	 -20.683	 1.0	 186.33	 1	 186.333	 88.281;
	2679	 127.8785	 37.0805	 94.844	 -20.683	 1.0	 186.33	 1	 186.333	 69.424;
	2683	 181.582	 9.7705	 60.322	 -40.781	 1.0	 283.2	 1	 283.2	 79.964;
	2688	 150.95	 7.0035	 43.239	 -29.232	 1.0	 203.0	 1	 203.0	 98.9;
	2691	 24.0005	 8.557	 21.887	 -4.773	 1.0	 43.0	 1	 43.0	 5.001;
	2692	 32.241	 8.557	 21.887	 -4.773	 1.0	 43.0	 1	 43.0	 21.482;
...
];

%% generator cost data
%	2	startup	shutdown	n	c(n-1)	...	c0
mpc.gencost = [
2	0.0	0.0	3	0.2	17.440000	-32.940000;
2	0.0	0.0	3	0.2	12.880000	0.000000;
2	0.0	0.0	3	0.2	20.330000	-35.950000;
2	0.0	0.0	3	0.2	19.240000	-31.910000;
2	0.0	0.0	3	0.2	16.980000	-29.710000;
2	0.0	0.0	3	0.2	17.610000	-30.630000;
	2	 0.0	 0.0	 3	   0.000000	   0.000000	   0.000000;
	2	 0.0	 0.0	 3	   0.000000	   0.000000	   0.000000;
	2	 0.0	 0.0	 3	   0.000000	   0.000000	   0.000000;
	2	 0.0	 0.0	 3	   0.000000	   0.000000	   0.000000;
	2	 0.0	 0.0	 3	   0.000000	   0.000000	   0.000000;
	2	 0.0	 0.0	 3	   0.000000	   0.000000	   0.000000;
	2	 0.0	 0.0	 3	   0.000000	   0.000000	   0.000000;
	2	 0.0	 0.0	 3	   0.000000	   0.000000	   0.000000;
	2	 0.0	 0.0	 3	   0.000000	   0.000000	   0.000000;
	2	 0.0	 0.0	 3	   0.000000	   0.000000	   0.000000;
	2	 0.0	 0.0	 3	   0.000000	   0.000000	   0.000000;
	2	 0.0	 0.0	 3	   0.000000	   0.000000	   0.000000;
	2	 0.0	 0.0	 3	   0.000000	   0.000000	   0.000000;
	2	 0.0	 0.0	 3	   0.000000	   0.000000	   0.000000;
	2	 0.0	 0.0	 3	   0.013130	  17.510000	  -2.170000;
	2	 0.0	 0.0	 3	   0.018080	  19.240000	  -2.636000;
	2	 0.0	 0.0	 3	   0.019070	  21.000000	  -2.543000;
	2	 0.0	 0.0	 3	   0.043180	  53.980000	 -16.290000;
2	0.0	0.0	3	0.2	17.650000	0.000000;
2	0.0	0.0	3	0.2	16.870000	-47.580000;
2	0.0	0.0	3	0.2	18.420000	0.000000;
	2	 0.0	 0.0	 3	   0.016510	  16.250000	   0.000000;
	2	 0.0	 0.0	 3	   0.000000	   0.000000	   0.000000;
	2	 0.0	 0.0	 3	   0.000000	   0.000000	   0.000000;
	2	 0.0	 0.0	 3	   0.017490	  17.640000	  -1.585000;
	2	 0.0	 0.0	 3	   0.010040	  17.360000	  -1.150000;
	2	 0.0	 0.0	 3	   0.015570	  16.680000	  -1.611000;
	2	 0.0	 0.0	 3	   0.068860	  47.080000	 -23.040000;
	2	 0.0	 0.0	 3	   0.040130	  51.070000	 -16.850000;
2	0.0	0.0	3	0.2	17.520000	-29.300000;
2	0.0	0.0	3	0.2	15.580000	-25.270000;
2	0.0	0.0	3	0.2	19.290000	-28.650000;
2	0.0	0.0	3	0.2	19.900000	0.000000;
2	0.0	0.0	3	0.2	15.590000	-28.500000;
2	0.0	0.0	3	0.2	17.330000	0.000000;
2	0.0	0.0	3	0.2	16.400000	0.000000;
2	0.0	0.0	3	0.2	12.850000	0.000000;
2	0.0	0.0	3	0.2	17.680000	0.000000;
2	0.0	0.0	3	0.2	15.830000	0.000000;
2	0.0	0.0	3	0.2	17.200000	0.000000;
2	0.0	0.0	3	0.2	14.580000	0.000000;
2	0.0	0.0	3	0.2	12.400000	0.000000;
	2	 0.0	 0.0	 3	   0.021660	  16.350000	  -1.294000;
	2	 0.0	 0.0	 3	   0.013870	  16.150000	  -1.187000;
	2	 0.0	 0.0	 3	   0.015950	  17.830000	  -1.461000;
	2	 0.0	 0.0	 3	   0.022650	  17.910000	  -2.061000;
	2	 0.0	 0.0	 3	   0.020350	  20.050000	  -2.561000;
	2	 0.0	 0.0	 3	   0.014010	  20.440000	  -2.129000;
2	0.0	0.0	3	0.2	17.030000	0.000000;
2	0.0	0.0	3	0.2	15.900000	0.000000;
2	0.0	0.0	3	0.2	16.340000	0.000000;
2	0.0	0.0	3	0.2	14.270000	-4.747000;
	2	 0.0	 0.0	 3	   0.000000	   0.000000	   0.000000;
	2	 0.0	 0.0	 3	   0.012830	  15.400000	   0.000000;
	2	 0.0	 0.0	 3	   0.015990	  18.460000	   0.000000;
	2	 0.0	 0.0	 3	   0.013190	  15.440000	   0.000000;
	2	 0.0	 0.0	 3	   0.020740	  20.670000	  -1.665000;
	2	 0.0	 0.0	 3	   0.021410	  18.130000	  -1.166000;
	2	 0.0	 0.0	 3	   0.069530	  30.500000	 -16.060000;
	2	 0.0	 0.0	 3	   0.000000	   0.000000	   0.000000;
	2	 0.0	 0.0	 3	   0.000000	   0.000000	   0.000000;
	2	 0.0	 0.0	 3	   0.000000	   0.000000	   0.000000;
	2	 0.0	 0.0	 3	   0.000000	   0.000000	   0.000000;
	2	 0.0	 0.0	 3	   0.000000	   0.000000	   0.000000;
	2	 0.0	 0.0	 3	   0.000000	   0.000000	   0.000000;
	2	 0.0	 0.0	 3	   0.000000	   0.000000	   0.000000;
2	0.0	0.0	3	0.2	16.640000	-1.592000;
2	0.0	0.0	3	0.2	12.830000	-1.557000;
2	0.0	0.0	3	0.2	14.350000	-1.863000;
2	0.0	0.0	3	0.2	15.060000	-2.747000;
2	0.0	0.0	3	0.2	15.080000	-1.709000;
2	0.0	0.0	3	0.2	17.090000	-1.949000;
2	0.0	0.0	3	0.2	15.730000	0.000000;
2	0.0	0.0	3	0.2	15.420000	-2.594000;
2	0.0	0.0	3	0.2	14.740000	0.000000;
2	0.0	0.0	3	0.2	14.770000	-1.915000;
2	0.0	0.0	3	0.2	15.750000	-2.810000;
2	0.0	0.0	3	0.2	17.800000	-2.441000;
2	0.0	0.0	3	0.2	17.170000	-12.920000;
2	0.0	0.0	3	0.2	14.370000	-1.300000;
	2	 0.0	 0.0	 3	   0.011430	  18.140000	  -1.747000;
	2	 0.0	 0.0	 3	   0.019220	  19.880000	  -2.606000;
	2	 0.0	 0.0	 3	   0.016310	  19.470000	  -2.139000;
2	0.0	0.0	3	0.2	16.260000	-22.010000;
2	0.0	0.0	3	0.2	17.180000	-28.280000;
2	0.0	0.0	3	0.2	18.920000	-32.330000;
2	0.0	0.0	3	0.2	17.980000	0.000000;
2	0.0	0.0	3	0.2	16.330000	-28.050000;
	2	 0.0	 0.0	 3	   0.011390	  13.820000	   0.000000;
	2	 0.0	 0.0	 3	   0.016130	  19.250000	  -1.327000;
	2	 0.0	 0.0	 3	   0.011690	  16.620000	  -1.205000;
	2	 0.0	 0.0	 3	   0.013690	  18.980000	  -2.581000;
	2	 0.0	 0.0	 3	   0.013210	  17.970000	  -2.287000;
2	0.0	0.0	3	0.2	16.280000	0.000000;
2	0.0	0.0	3	0.2	20.420000	0.000000;
2	0.0	0.0	3	0.2	16.780000	-1.067000;
2	0.0	0.0	3	0.2	14.800000	-1.147000;
2	0.0	0.0	3	0.2	13.720000	0.000000;
2	0.0	0.0	3	0.2	16.400000	-38.800000;
2	0.0	0.0	3	0.2	19.280000	-38.970000;
2	0.0	0.0	3	0.2	18.520000	-42.210000;
2	0.0	0.0	3	0.2	18.980000	-44.480000;
2	0.0	0.0	3	0.2	20.250000	-46.150000;
2	0.0	0.0	3	0.2	19.130000	0.000000;
2	0.0	0.0	3	0.2	16.770000	-21.350000;
2	0.0	0.0	3	0.2	20.010000	-24.790000;
2	0.0	0.0	3	0.2	18.290000	0.000000;
2	0.0	0.0	3	0.2	15.420000	-17.620000;
2	0.0	0.0	3	0.2	17.110000	-5.602000;
	2	 0.0	 0.0	 3	   0.000000	   0.000000	   0.000000;
	2	 0.0	 0.0	 3	   0.013520	  20.890000	  -1.865000;
	2	 0.0	 0.0	 3	   0.019390	  17.930000	  -2.177000;
	2	 0.0	 0.0	 3	   0.017490	  19.820000	  -2.142000;
	2	 0.0	 0.0	 3	   0.000000	   0.000000	   0.000000;
	2	 0.0	 0.0	 3	   0.000000	   0.000000	   0.000000;
	2	 0.0	 0.0	 3	   0.000000	   0.000000	   0.000000;
	2	 0.0	 0.0	 3	   0.009681	  16.490000	  -1.003000;
	2	 0.0	 0.0	 3	   0.016860	  21.560000	  -1.412000;
	2	 0.0	 0.0	 3	   0.019280	  20.310000	  -1.604000;
	2	 0.0	 0.0	 3	   0.013700	  18.470000	  -1.238000;
	2	 0.0	 0.0	 3	   0.011950	  20.250000	  -1.199000;
	2	 0.0	 0.0	 3	   0.014340	  20.570000	  -1.900000;
	2	 0.0	 0.0	 3	   0.015750	  22.800000	  -1.969000;
	2	 0.0	 0.0	 3	   0.011050	  17.910000	  -1.429000;
	2	 0.0	 0.0	 3	   0.000000	   0.000000	   0.000000;
	2	 0.0	 0.0	 3	   0.014750	  17.590000	  -1.185000;
	2	 0.0	 0.0	 3	   0.020070	  19.620000	  -1.071000;
	2	 0.0	 0.0	 3	   0.000000	   0.000000	   0.000000;
	2	 0.0	 0.0	 3	   0.000000	   0.000000	   0.000000;
2	0.0	0.0	3	0.2	16.650000	0.000000;
2	0.0	0.0	3	0.2	18.300000	-11.260000;
2	0.0	0.0	3	0.2	15.960000	-9.874000;
2	0.0	0.0	3	0.2	17.490000	0.000000;
	2	 0.0	 0.0	 3	   0.030640	  32.130000	  -3.031000;
	2	 0.0	 0.0	 3	   0.046090	  32.280000	  -3.604000;
2	0.0	0.0	3	0.2	12.990000	-1.996000;
2	0.0	0.0	3	0.2	16.370000	-2.346000;
2	0.0	0.0	3	0.2	17.010000	0.000000;
2	0.0	0.0	3	0.2	14.440000	-2.548000;
2	0.0	0.0	3	0.2	18.130000	0.000000;
2	0.0	0.0	3	0.2	16.820000	0.000000;
	2	 0.0	 0.0	 3	   0.014060	  16.760000	  -1.007000;
2	0.0	0.0	3	0.2	17.230000	0.000000;
	2	 0.0	 0.0	 3	   0.015030	  17.060000	   0.000000;
	2	 0.0	 0.0	 3	   0.017350	  17.850000	  -1.040000;
	2	 0.0	 0.0	 3	   0.001101	   9.512000	   0.000000;
	2	 0.0	 0.0	 3	   0.001697	   8.369000	   0.000000;
2	0.0	0.0	3	0.2	17.040000	-17.280000;
2	0.0	0.0	3	0.2	14.970000	0.000000;
2	0.0	0.0	3	0.2	16.940000	-16.240000;
2	0.0	0.0	3	0.2	16.960000	-19.710000;
2	0.0	0.0	3	0.2	18.780000	0.000000;
2	0.0	0.0	3	0.2	16.370000	-20.760000;
	2	 0.0	 0.0	 3	   0.000000	   0.000000	   0.000000;
	2	 0.0	 0.0	 3	   0.000000	   0.000000	   0.000000;
	2	 0.0	 0.0	 3	   0.009473	  18.910000	  -2.008000;
	2	 0.0	 0.0	 3	   0.019220	  19.040000	  -2.590000;
	2	 0.0	 0.0	 3	   0.000000	   0.000000	   0.000000;
	2	 0.0	 0.0	 3	   0.000000	   0.000000	   0.000000;
	2	 0.0	 0.0	 3	   0.000000	   0.000000	   0.000000;
2	0.0	0.0	3	0.2	17.580000	-1.317000;
2	0.0	0.0	3	0.2	18.380000	-1.549000;
	2	 0.0	 0.0	 3	   0.000000	   0.000000	   0.000000;
	2	 0.0	 0.0	 3	   0.016060	  17.540000	  -3.054000;
	2	 0.0	 0.0	 3	   0.013510	  24.010000	  -3.379000;
	2	 0.0	 0.0	 3	   0.019130	  18.860000	  -3.463000;
	2	 0.0	 0.0	 3	   0.000000	   0.000000	   0.000000;
	2	 0.0	 0.0	 3	   0.000000	   0.000000	   0.000000;
	2	 0.0	 0.0	 3	   0.057540	  50.070000	 -20.310000;
	2	 0.0	 0.0	 3	   0.072990	  38.150000	 -18.500000;
	2	 0.0	 0.0	 3	   0.066880	  45.380000	 -20.760000;
	2	 0.0	 0.0	 3	   0.000000	   0.000000	   0.000000;
	2	 0.0	 0.0	 3	   0.000000	   0.000000	   0.000000;
	2	 0.0	 0.0	 3	   0.000000	   0.000000	   0.000000;
	2	 0.0	 0.0	 3	   0.000000	   0.000000	   0.000000;
	2	 0.0	 0.0	 3	   0.000000	   0.000000	   0.000000;
	2	 0.0	 0.0	 3	   0.000000	   0.000000	   0.000000;
	2	 0.0	 0.0	 3	   0.000000	   0.000000	   0.000000;
	2	 0.0	 0.0	 3	   0.014250	  17.000000	  -1.013000;
	2	 0.0	 0.0	 3	   0.010650	  15.640000	   0.000000;
	2	 0.0	 0.0	 3	   0.018500	  16.190000	  -1.079000;
	2	 0.0	 0.0	 3	   0.000000	   0.000000	   0.000000;
	2	 0.0	 0.0	 3	   0.000000	   0.000000	   0.000000;
	2	 0.0	 0.0	 3	   0.000000	   0.000000	   0.000000;
	2	 0.0	 0.0	 3	   0.013340	  21.020000	  -1.540000;
	2	 0.0	 0.0	 3	   0.013790	  17.620000	  -1.454000;
	2	 0.0	 0.0	 3	   0.020510	  17.040000	  -1.241000;
	2	 0.0	 0.0	 3	   0.020060	  18.400000	  -1.395000;
	2	 0.0	 0.0	 3	   0.011620	  20.590000	  -1.368000;
	2	 0.0	 0.0	 3	   0.017260	  18.570000	  -1.793000;
	2	 0.0	 0.0	 3	   0.000000	   0.000000	   0.000000;
	2	 0.0	 0.0	 3	   0.000000	   0.000000	   0.000000;
2	0.0	0.0	3	0.2	16.310000	-3.822000;
2	0.0	0.0	3	0.2	18.550000	0.000000;
...
];

%% storage data
%	bus	energy	energy_rating	charge_rating	discharge_rating	thermal_rating	qmin	qmax	r	x	standby_loss	status
mpc.storage = [
	1409	0.0	0.0	1.00	197.2650	98.6325	71.0154	0.9	0.85	1000	-1000	1000	0.1	0.01	0	0	1;
	820	0.0	0.0	1.00	185.8500	92.9250	66.9060	0.9	0.85	1000	-1000	1000	0.1	0.01	0	0	1;
	1345	0.0	0.0	1.00	179.7000	89.8500	64.6920	0.9	0.85	1000	-1000	1000	0.1	0.01	0	0	1;
	830	0.0	0.0	1.00	177.3300	88.6650	63.8388	0.9	0.85	1000	-1000	1000	0.1	0.01	0	0	1;
	1164	0.0	0.0	1.00	175.5600	87.7800	63.2016	0.9	0.85	1000	-1000	1000	0.1	0.01	0	0	1;
	1680	0.0	0.0	1.00	174.0750	87.0375	62.6670	0.9	0.85	1000	-1000	1000	0.1	0.01	0	0	1;
	1335	0.0	0.0	1.00	171.5250	85.7625	61.7490	0.9	0.85	1000	-1000	1000	0.1	0.01	0	0	1;
	1818	0.0	0.0	1.00	171.1050	85.5525	61.5978	0.9	0.85	1000	-1000	1000	0.1	0.01	0	0	1;
	455	0.0	0.0	1.00	169.8750	84.9375	61.1550	0.9	0.85	1000	-1000	1000	0.1	0.01	0	0	1;
	1688	0.0	0.0	1.00	167.5800	83.7900	60.3288	0.9	0.85	1000	-1000	1000	0.1	0.01	0	0	1;
	1105	0.0	0.0	1.00	164.3400	82.1700	59.1624	0.9	0.85	1000	-1000	1000	0.1	0.01	0	0	1;
	1815	0.0	0.0	1.00	160.1550	80.0775	57.6558	0.9	0.85	1000	-1000	1000	0.1	0.01	0	0	1;
	476	0.0	0.0	1.00	159.5250	79.7625	57.4290	0.9	0.85	1000	-1000	1000	0.1	0.01	0	0	1;
	1649	0.0	0.0	1.00	159.2100	79.6050	57.3156	0.9	0.85	1000	-1000	1000	0.1	0.01	0	0	1;
	541	0.0	0.0	1.00	158.0400	79.0200	56.8944	0.9	0.85	1000	-1000	1000	0.1	0.01	0	0	1;
	450	0.0	0.0	1.00	155.1450	77.5725	55.8522	0.9	0.85	1000	-1000	1000	0.1	0.01	0	0	1;
	1777	0.0	0.0	1.00	154.0350	77.0175	55.4526	0.9	0.85	1000	-1000	1000	0.1	0.01	0	0	1;
	2029	0.0	0.0	1.00	152.1450	76.0725	54.7722	0.9	0.85	1000	-1000	1000	0.1	0.01	0	0	1;
	2007	0.0	0.0	1.00	151.5750	75.7875	54.5670	0.9	0.85	1000	-1000	1000	0.1	0.01	0	0	1;
	459	0.0	0.0	1.00	151.2900	75.6450	54.4644	0.9	0.85	1000	-1000	1000	0.1	0.01	0	0	1;
	4624	0.0	0.0	1.00	150.4650	75.2325	54.1674	0.9	0.85	1000	-1000	1000	0.1	0.01	0	0	1;
	1375	0.0	0.0	1.00	144.1350	72.0675	51.8886	0.9	0.85	1000	-1000	1000	0.1	0.01	0	0	1;
	716	0.0	0.0	1.00	142.1130	71.0565	51.1607	0.9	0.85	1000	-1000	1000	0.1	0.01	0	0	1;
	1228	0.0	0.0	1.00	141.9960	70.9980	51.1186	0.9	0.85	1000	-1000	1000	0.1	0.01	0	0	1;
	1416	0.0	0.0	1.00	141.6870	70.8435	51.0073	0.9	0.85	1000	-1000	1000	0.1	0.01	0	0	1;
	1957	0.0	0.0	1.00	141.4755	70.7377	50.9312	0.9	0.85	1000	-1000	1000	0.1	0.01	0	0	1;
	484	0.0	0.0	1.00	139.0365	69.5182	50.0531	0.9	0.85	1000	-1000	1000	0.1	0.01	0	0	1;
	1365	0.0	0.0	1.00	138.6390	69.3195	49.9100	0.9	0.85	1000	-1000	1000	0.1	0.01	0	0	1;
	1774	0.0	0.0	1.00	138.1770	69.0885	49.7437	0.9	0.85	1000	-1000	1000	0.1	0.01	0	0	1;
	740	0.0	0.0	1.00	136.2990	68.1495	49.0676	0.9	0.85	1000	-1000	1000	0.1	0.01	0	0	1;
	1264	0.0	0.0	1.00	136.2015	68.1008	49.0325	0.9	0.85	1000	-1000	1000	0.1	0.01	0	0	1;
	565	0.0	0.0	1.00	134.8215	67.4108	48.5357	0.9	0.85	1000	-1000	1000	0.1	0.01	0	0	1;
	1233	0.0	0.0	1.00	134.1285	67.0643	48.2863	0.9	0.85	1000	-1000	1000	0.1	0.01	0	0	1;
	1894	0.0	0.0	1.00	133.8390	66.9195	48.1820	0.9	0.85	1000	-1000	1000	0.1	0.01	0	0	1;
	423	0.0	0.0	1.00	132.5955	66.2978	47.7344	0.9	0.85	1000	-1000	1000	0.1	0.01	0	0	1;
	513	0.0	0.0	1.00	132.4425	66.2212	47.6793	0.9	0.85	1000	-1000	1000	0.1	0.01	0	0	1;
	4585	0.0	0.0	1.00	130.9230	65.4615	47.1323	0.9	0.85	1000	-1000	1000	0.1	0.01	0	0	1;
	460	0.0	0.0	1.00	130.5105	65.2553	46.9838	0.9	0.85	1000	-1000	1000	0.1	0.01	0	0	1;
	1245	0.0	0.0	1.00	130.4820	65.2410	46.9735	0.9	0.85	1000	-1000	1000	0.1	0.01	0	0	1;
	1943	0.0	0.0	1.00	129.8940	64.9470	46.7618	0.9	0.85	1000	-1000	1000	0.1	0.01	0	0	1;
	1899	0.0	0.0	1.00	129.5520	64.7760	46.6387	0.9	0.85	1000	-1000	1000	0.1	0.01	0	0	1;
	2057	0.0	0.0	1.00	128.5800	64.2900	46.2888	0.9	0.85	1000	-1000	1000	0.1	0.01	0	0	1;
	1890	0.0	0.0	1.00	126.5760	63.2880	45.5674	0.9	0.85	1000	-1000	1000	0.1	0.01	0	0	1;
	723	0.0	0.0	1.00	126.2400	63.1200	45.4464	0.9	0.85	1000	-1000	1000	0.1	0.01	0	0	1;
	827	0.0	0.0	1.00	126.0375	63.0188	45.3735	0.9	0.85	1000	-1000	1000	0.1	0.01	0	0	1;
	4617	0.0	0.0	1.00	124.8255	62.4128	44.9372	0.9	0.85	1000	-1000	1000	0.1	0.01	0	0	1;
	507	0.0	0.0	1.00	124.7580	62.3790	44.9129	0.9	0.85	1000	-1000	1000	0.1	0.01	0	0	1;
	1996	0.0	0.0	1.00	124.7130	62.3565	44.8967	0.9	0.85	1000	-1000	1000	0.1	0.01	0	0	1;
	1820	0.0	0.0	1.00	124.2150	62.1075	44.7174	0.9	0.85	1000	-1000	1000	0.1	0.01	0	0	1;
	1674	0.0	0.0	1.00	124.0350	62.0175	44.6526	0.9	0.85	1000	-1000	1000	0.1	0.01	0	0	1;
	465	0.0	0.0	1.00	123.0660	61.5330	44.3038	0.9	0.85	1000	-1000	1000	0.1	0.01	0	0	1;
	1291	0.0	0.0	1.00	122.0370	61.0185	43.9333	0.9	0.85	1000	-1000	1000	0.1	0.01	0	0	1;
	498	0.0	0.0	1.00	121.8000	60.9000	43.8480	0.9	0.85	1000	-1000	1000	0.1	0.01	0	0	1;
	411	0.0	0.0	1.00	121.4070	60.7035	43.7065	0.9	0.85	1000	-1000	1000	0.1	0.01	0	0	1;
	729	0.0	0.0	1.00	119.8050	59.9025	43.1298	0.9	0.85	1000	-1000	1000	0.1	0.01	0	0	1;
	4658	0.0	0.0	1.00	119.1915	59.5957	42.9089	0.9	0.85	1000	-1000	1000	0.1	0.01	0	0	1;
	1964	0.0	0.0	1.00	118.3620	59.1810	42.6103	0.9	0.85	1000	-1000	1000	0.1	0.01	0	0	1;
	1881	0.0	0.0	1.00	118.0980	59.0490	42.5153	0.9	0.85	1000	-1000	1000	0.1	0.01	0	0	1;
	8510	0.0	0.0	1.00	116.4915	58.2458	41.9369	0.9	0.85	1000	-1000	1000	0.1	0.01	0	0	1;
	1832	0.0	0.0	1.00	116.0745	58.0373	41.7868	0.9	0.85	1000	-1000	1000	0.1	0.01	0	0	1;
	440	0.0	0.0	1.00	115.5990	57.7995	41.6156	0.9	0.85	1000	-1000	1000	0.1	0.01	0	0	1;
	1368	0.0	0.0	1.00	115.4430	57.7215	41.5595	0.9	0.85	1000	-1000	1000	0.1	0.01	0	0	1;
	2049	0.0	0.0	1.00	115.3695	57.6847	41.5330	0.9	0.85	1000	-1000	1000	0.1	0.01	0	0	1;
	1717	0.0	0.0	1.00	115.1055	57.5527	41.4380	0.9	0.85	1000	-1000	1000	0.1	0.01	0	0	1;
	8174	0.0	0.0	1.00	114.9195	57.4597	41.3710	0.9	0.85	1000	-1000	1000	0.1	0.01	0	0	1;
	1254	0.0	0.0	1.00	114.3405	57.1703	41.1626	0.9	0.85	1000	-1000	1000	0.1	0.01	0	0	1;
	1310	0.0	0.0	1.00	114.2805	57.1402	41.1410	0.9	0.85	1000	-1000	1000	0.1	0.01	0	0	1;
	1645	0.0	0.0	1.00	114.1935	57.0968	41.1097	0.9	0.85	1000	-1000	1000	0.1	0.01	0	0	1;
	496	0.0	0.0	1.00	114.0270	57.0135	41.0497	0.9	0.85	1000	-1000	1000	0.1	0.01	0	0	1;
	1884	0.0	0.0	1.00	113.0505	56.5252	40.6982	0.9	0.85	1000	-1000	1000	0.1	0.01	0	0	1;
	1876	0.0	0.0	1.00	112.8120	56.4060	40.6123	0.9	0.85	1000	-1000	1000	0.1	0.01	0	0	1;
	1708	0.0	0.0	1.00	112.7745	56.3873	40.5988	0.9	0.85	1000	-1000	1000	0.1	0.01	0	0	1;
	994	0.0	0.0	1.00	111.3525	55.6762	40.0869	0.9	0.85	1000	-1000	1000	0.1	0.01	0	0	1;
	1033	0.0	0.0	1.00	110.4015	55.2007	39.7445	0.9	0.85	1000	-1000	1000	0.1	0.01	0	0	1;
	82	0.0	0.0	1.00	109.9740	54.9870	39.5906	0.9	0.85	1000	-1000	1000	0.1	0.01	0	0	1;
	1668	0.0	0.0	1.00	109.9065	54.9532	39.5663	0.9	0.85	1000	-1000	1000	0.1	0.01	0	0	1;
	1843	0.0	0.0	1.00	109.3530	54.6765	39.3671	0.9	0.85	1000	-1000	1000	0.1	0.01	0	0	1;
	1678	0.0	0.0	1.00	109.3440	54.6720	39.3638	0.9	0.85	1000	-1000	1000	0.1	0.01	0	0	1;
	1194	0.0	0.0	1.00	109.0335	54.5167	39.2521	0.9	0.85	1000	-1000	1000	0.1	0.01	0	0	1;
	1750	0.0	0.0	1.00	108.8265	54.4133	39.1775	0.9	0.85	1000	-1000	1000	0.1	0.01	0	0	1;
	1197	0.0	0.0	1.00	108.6990	54.3495	39.1316	0.9	0.85	1000	-1000	1000	0.1	0.01	0	0	1;
	1922	0.0	0.0	1.00	107.9205	53.9603	38.8514	0.9	0.85	1000	-1000	1000	0.1	0.01	0	0	1;
	1394	0.0	0.0	1.00	107.8440	53.9220	38.8238	0.9	0.85	1000	-1000	1000	0.1	0.01	0	0	1;
	1384	0.0	0.0	1.00	107.5185	53.7593	38.7067	0.9	0.85	1000	-1000	1000	0.1	0.01	0	0	1;
	970	0.0	0.0	1.00	107.0250	53.5125	38.5290	0.9	0.85	1000	-1000	1000	0.1	0.01	0	0	1;
	1073	0.0	0.0	1.00	106.3455	53.1728	38.2844	0.9	0.85	1000	-1000	1000	0.1	0.01	0	0	1;
	2036	0.0	0.0	1.00	105.6000	52.8000	38.0160	0.9	0.85	1000	-1000	1000	0.1	0.01	0	0	1;
	1084	0.0	0.0	1.00	105.2865	52.6433	37.9031	0.9	0.85	1000	-1000	1000	0.1	0.01	0	0	1;
	113	0.0	0.0	1.00	105.1425	52.5712	37.8513	0.9	0.85	1000	-1000	1000	0.1	0.01	0	0	1;
	2014	0.0	0.0	1.00	105.1320	52.5660	37.8475	0.9	0.85	1000	-1000	1000	0.1	0.01	0	0	1;
	1401	0.0	0.0	1.00	104.9145	52.4573	37.7692	0.9	0.85	1000	-1000	1000	0.1	0.01	0	0	1;
	4600	0.0	0.0	1.00	104.8560	52.4280	37.7482	0.9	0.85	1000	-1000	1000	0.1	0.01	0	0	1;
	1393	0.0	0.0	1.00	104.8305	52.4153	37.7390	0.9	0.85	1000	-1000	1000	0.1	0.01	0	0	1;
	4644	0.0	0.0	1.00	104.5500	52.2750	37.6380	0.9	0.85	1000	-1000	1000	0.1	0.01	0	0	1;
	1298	0.0	0.0	1.00	104.5320	52.2660	37.6315	0.9	0.85	1000	-1000	1000	0.1	0.01	0	0	1;
	1247	0.0	0.0	1.00	104.2170	52.1085	37.5181	0.9	0.85	1000	-1000	1000	0.1	0.01	0	0	1;
	114	0.0	0.0	1.00	104.1750	52.0875	37.5030	0.9	0.85	1000	-1000	1000	0.1	0.01	0	0	1;
	1886	0.0	0.0	1.00	103.9515	51.9758	37.4225	0.9	0.85	1000	-1000	1000	0.1	0.01	0	0	1;
	1716	0.0	0.0	1.00	103.9110	51.9555	37.4080	0.9	0.85	1000	-1000	1000	0.1	0.01	0	0	1;
	539	0.0	0.0	1.00	103.3605	51.6803	37.2098	0.9	0.85	1000	-1000	1000	0.1	0.01	0	0	1;
	1787	0.0	0.0	1.00	103.1160	51.5580	37.1218	0.9	0.85	1000	-1000	1000	0.1	0.01	0	0	1;
	1358	0.0	0.0	1.00	102.9090	51.4545	37.0472	0.9	0.85	1000	-1000	1000	0.1	0.01	0	0	1;
	2002	0.0	0.0	1.00	102.4755	51.2377	36.8912	0.9	0.85	1000	-1000	1000	0.1	0.01	0	0	1;
	7471	0.0	0.0	1.00	102.3090	51.1545	36.8312	0.9	0.85	1000	-1000	1000	0.1	0.01	0	0	1;
	1752	0.0	0.0	1.00	102.2715	51.1358	36.8177	0.9	0.85	1000	-1000	1000	0.1	0.01	0	0	1;
	1602	0.0	0.0	1.00	102.0585	51.0293	36.7411	0.9	0.85	1000	-1000	1000	0.1	0.01	0	0	1;
	1925	0.0	0.0	1.00	102.0585	51.0293	36.7411	0.9	0.85	1000	-1000	1000	0.1	0.01	0	0	1;
	8147	0.0	0.0	1.00	101.5830	50.7915	36.5699	0.9	0.85	1000	-1000	1000	0.1	0.01	0	0	1;
	1994	0.0	0.0	1.00	101.3760	50.6880	36.4954	0.9	0.85	1000	-1000	1000	0.1	0.01	0	0	1;
	1380	0.0	0.0	1.00	101.2965	50.6483	36.4667	0.9	0.85	1000	-1000	1000	0.1	0.01	0	0	1;
	524	0.0	0.0	1.00	101.2680	50.6340	36.4565	0.9	0.85	1000	-1000	1000	0.1	0.01	0	0	1;
	1827	0.0	0.0	1.00	101.1225	50.5613	36.4041	0.9	0.85	1000	-1000	1000	0.1	0.01	0	0	1;
	437	0.0	0.0	1.00	100.6560	50.3280	36.2362	0.9	0.85	1000	-1000	1000	0.1	0.01	0	0	1;
	109	0.0	0.0	1.00	100.4715	50.2357	36.1697	0.9	0.85	1000	-1000	1000	0.1	0.01	0	0	1;
	1261	0.0	0.0	1.00	100.1895	50.0948	36.0682	0.9	0.85	1000	-1000	1000	0.1	0.01	0	0	1;
	4648	0.0	0.0	1.00	99.8655	49.9327	35.9516	0.9	0.85	1000	-1000	1000	0.1	0.01	0	0	1;
	1259	0.0	0.0	1.00	99.0360	49.5180	35.6530	0.9	0.85	1000	-1000	1000	0.1	0.01	0	0	1;
	1748	0.0	0.0	1.00	98.7705	49.3852	35.5574	0.9	0.85	1000	-1000	1000	0.1	0.01	0	0	1;
	4668	0.0	0.0	1.00	98.2035	49.1017	35.3533	0.9	0.85	1000	-1000	1000	0.1	0.01	0	0	1;
	558	0.0	0.0	1.00	97.7955	48.8978	35.2064	0.9	0.85	1000	-1000	1000	0.1	0.01	0	0	1;
	451	0.0	0.0	1.00	97.0755	48.5378	34.9472	0.9	0.85	1000	-1000	1000	0.1	0.01	0	0	1;
	4438	0.0	0.0	1.00	97.0290	48.5145	34.9304	0.9	0.85	1000	-1000	1000	0.1	0.01	0	0	1;
	966	0.0	0.0	1.00	96.3360	48.1680	34.6810	0.9	0.85	1000	-1000	1000	0.1	0.01	0	0	1;
	567	0.0	0.0	1.00	96.2100	48.1050	34.6356	0.9	0.85	1000	-1000	1000	0.1	0.01	0	0	1;
	1418	0.0	0.0	1.00	96.1335	48.0667	34.6081	0.9	0.85	1000	-1000	1000	0.1	0.01	0	0	1;
	2037	0.0	0.0	1.00	95.7480	47.8740	34.4693	0.9	0.85	1000	-1000	1000	0.1	0.01	0	0	1;
	846	0.0	0.0	1.00	95.6685	47.8343	34.4407	0.9	0.85	1000	-1000	1000	0.1	0.01	0	0	1;
	209	0.0	0.0	1.00	95.5440	47.7720	34.3958	0.9	0.85	1000	-1000	1000	0.1	0.01	0	0	1;
	3900	0.0	0.0	1.00	95.2185	47.6093	34.2787	0.9	0.85	1000	-1000	1000	0.1	0.01	0	0	1;
	1117	0.0	0.0	1.00	95.1240	47.5620	34.2446	0.9	0.85	1000	-1000	1000	0.1	0.01	0	0	1;
	832	0.0	0.0	1.00	94.7640	47.3820	34.1150	0.9	0.85	1000	-1000	1000	0.1	0.01	0	0	1;
	1690	0.0	0.0	1.00	94.6590	47.3295	34.0772	0.9	0.85	1000	-1000	1000	0.1	0.01	0	0	1;
	1148	0.0	0.0	1.00	94.2945	47.1472	33.9460	0.9	0.85	1000	-1000	1000	0.1	0.01	0	0	1;
	936	0.0	0.0	1.00	93.8925	46.9462	33.8013	0.9	0.85	1000	-1000	1000	0.1	0.01	0	0	1;
	1324	0.0	0.0	1.00	93.8550	46.9275	33.7878	0.9	0.85	1000	-1000	1000	0.1	0.01	0	0	1;
	7693	0.0	0.0	1.00	93.8370	46.9185	33.7813	0.9	0.85	1000	-1000	1000	0.1	0.01	0	0	1;
	1615	0.0	0.0	1.00	93.3570	46.6785	33.6085	0.9	0.85	1000	-1000	1000	0.1	0.01	0	0	1;
	1908	0.0	0.0	1.00	93.0720	46.5360	33.5059	0.9	0.85	1000	-1000	1000	0.1	0.01	0	0	1;
	2073	0.0	0.0	1.00	93.0000	46.5000	33.4800	0.9	0.85	1000	-1000	1000	0.1	0.01	0	0	1;
	414	0.0	0.0	1.00	92.7195	46.3598	33.3790	0.9	0.85	1000	-1000	1000	0.1	0.01	0	0	1;
	686	0.0	0.0	1.00	92.6265	46.3132	33.3455	0.9	0.85	1000	-1000	1000	0.1	0.01	0	0	1;
	1015	0.0	0.0	1.00	92.5935	46.2968	33.3337	0.9	0.85	1000	-1000	1000	0.1	0.01	0	0	1;
	2054	0.0	0.0	1.00	92.5215	46.2608	33.3077	0.9	0.85	1000	-1000	1000	0.1	0.01	0	0	1;
	812	0.0	0.0	1.00	92.3580	46.1790	33.2489	0.9	0.85	1000	-1000	1000	0.1	0.01	0	0	1;
	439	0.0	0.0	1.00	92.3370	46.1685	33.2413	0.9	0.85	1000	-1000	1000	0.1	0.01	0	0	1;
	2377	0.0	0.0	1.00	92.0940	46.0470	33.1538	0.9	0.85	1000	-1000	1000	0.1	0.01	0	0	1;
	4652	0.0	0.0	1.00	91.8105	45.9053	33.0518	0.9	0.85	1000	-1000	1000	0.1	0.01	0	0	1;
	1770	0.0	0.0	1.00	91.6860	45.8430	33.0070	0.9	0.85	1000	-1000	1000	0.1	0.01	0	0	1;
	1846	0.0	0.0	1.00	91.5075	45.7538	32.9427	0.9	0.85	1000	-1000	1000	0.1	0.01	0	0	1;
	2899	0.0	0.0	1.00	90.6900	45.3450	32.6484	0.9	0.85	1000	-1000	1000	0.1	0.01	0	0	1;
	1386	0.0	0.0	1.00	90.3795	45.1898	32.5366	0.9	0.85	1000	-1000	1000	0.1	0.01	0	0	1;
	1196	0.0	0.0	1.00	90.1065	45.0532	32.4383	0.9	0.85	1000	-1000	1000	0.1	0.01	0	0	1;
	6534	0.0	0.0	1.00	90.1035	45.0517	32.4373	0.9	0.85	1000	-1000	1000	0.1	0.01	0	0	1;
	6781	0.0	0.0	1.00	90.0000	45.0000	32.4000	0.9	0.85	1000	-1000	1000	0.1	0.01	0	0	1;
	2004	0.0	0.0	1.00	89.9160	44.9580	32.3698	0.9	0.85	1000	-1000	1000	0.1	0.01	0	0	1;
	762	0.0	0.0	1.00	89.8845	44.9423	32.3584	0.9	0.85	1000	-1000	1000	0.1	0.01	0	0	1;
	1622	0.0	0.0	1.00	89.6925	44.8462	32.2893	0.9	0.85	1000	-1000	1000	0.1	0.01	0	0	1;
	761	0.0	0.0	1.00	89.5275	44.7638	32.2299	0.9	0.85	1000	-1000	1000	0.1	0.01	0	0	1;
	1039	0.0	0.0	1.00	89.0280	44.5140	32.0501	0.9	0.85	1000	-1000	1000	0.1	0.01	0	0	1;
	1934	0.0	0.0	1.00	89.0115	44.5057	32.0441	0.9	0.85	1000	-1000	1000	0.1	0.01	0	0	1;
	1671	0.0	0.0	1.00	88.8585	44.4292	31.9891	0.9	0.85	1000	-1000	1000	0.1	0.01	0	0	1;
	1329	0.0	0.0	1.00	88.8135	44.4068	31.9729	0.9	0.85	1000	-1000	1000	0.1	0.01	0	0	1;
	1214	0.0	0.0	1.00	88.7205	44.3603	31.9394	0.9	0.85	1000	-1000	1000	0.1	0.01	0	0	1;
	1626	0.0	0.0	1.00	88.4715	44.2358	31.8497	0.9	0.85	1000	-1000	1000	0.1	0.01	0	0	1;
	1123	0.0	0.0	1.00	88.4145	44.2073	31.8292	0.9	0.85	1000	-1000	1000	0.1	0.01	0	0	1;
	828	0.0	0.0	1.00	88.3965	44.1983	31.8227	0.9	0.85	1000	-1000	1000	0.1	0.01	0	0	1;
	1677	0.0	0.0	1.00	87.6675	43.8338	31.5603	0.9	0.85	1000	-1000	1000	0.1	0.01	0	0	1;
	1723	0.0	0.0	1.00	87.4440	43.7220	31.4798	0.9	0.85	1000	-1000	1000	0.1	0.01	0	0	1;
	1045	0.0	0.0	1.00	86.9730	43.4865	31.3103	0.9	0.85	1000	-1000	1000	0.1	0.01	0	0	1;
	6062	0.0	0.0	1.00	86.8425	43.4213	31.2633	0.9	0.85	1000	-1000	1000	0.1	0.01	0	0	1;
	1207	0.0	0.0	1.00	86.6745	43.3372	31.2028	0.9	0.85	1000	-1000	1000	0.1	0.01	0	0	1;
	1910	0.0	0.0	1.00	86.3850	43.1925	31.0986	0.9	0.85	1000	-1000	1000	0.1	0.01	0	0	1;
	1692	0.0	0.0	1.00	86.3655	43.1827	31.0916	0.9	0.85	1000	-1000	1000	0.1	0.01	0	0	1;
	1316	0.0	0.0	1.00	85.9215	42.9607	30.9317	0.9	0.85	1000	-1000	1000	0.1	0.01	0	0	1;
	5699	0.0	0.0	1.00	85.5660	42.7830	30.8038	0.9	0.85	1000	-1000	1000	0.1	0.01	0	0	1;
	471	0.0	0.0	1.00	85.1655	42.5828	30.6596	0.9	0.85	1000	-1000	1000	0.1	0.01	0	0	1;
	1676	0.0	0.0	1.00	85.1520	42.5760	30.6547	0.9	0.85	1000	-1000	1000	0.1	0.01	0	0	1;
	457	0.0	0.0	1.00	85.0020	42.5010	30.6007	0.9	0.85	1000	-1000	1000	0.1	0.01	0	0	1;
	1412	0.0	0.0	1.00	84.2850	42.1425	30.3426	0.9	0.85	1000	-1000	1000	0.1	0.01	0	0	1;
	1845	0.0	0.0	1.00	84.2430	42.1215	30.3275	0.9	0.85	1000	-1000	1000	0.1	0.01	0	0	1;
	389	0.0	0.0	1.00	84.1620	42.0810	30.2983	0.9	0.85	1000	-1000	1000	0.1	0.01	0	0	1;
	433	0.0	0.0	1.00	84.0300	42.0150	30.2508	0.9	0.85	1000	-1000	1000	0.1	0.01	0	0	1;
	4240	0.0	0.0	1.00	83.7780	41.8890	30.1601	0.9	0.85	1000	-1000	1000	0.1	0.01	0	0	1;
	586	0.0	0.0	1.00	83.7135	41.8567	30.1369	0.9	0.85	1000	-1000	1000	0.1	0.01	0	0	1;
	1172	0.0	0.0	1.00	83.6235	41.8118	30.1045	0.9	0.85	1000	-1000	1000	0.1	0.01	0	0	1;
	647	0.0	0.0	1.00	83.5695	41.7848	30.0850	0.9	0.85	1000	-1000	1000	0.1	0.01	0	0	1;
	1822	0.0	0.0	1.00	83.1585	41.5793	29.9371	0.9	0.85	1000	-1000	1000	0.1	0.01	0	0	1;
	1157	0.0	0.0	1.00	83.0760	41.5380	29.9074	0.9	0.85	1000	-1000	1000	0.1	0.01	0	0	1;
	564	0.0	0.0	1.00	83.0595	41.5297	29.9014	0.9	0.85	1000	-1000	1000	0.1	0.01	0	0	1;
	8133	0.0	0.0	1.00	82.8030	41.4015	29.8091	0.9	0.85	1000	-1000	1000	0.1	0.01	0	0	1;
	1871	0.0	0.0	1.00	82.7310	41.3655	29.7832	0.9	0.85	1000	-1000	1000	0.1	0.01	0	0	1;
	2260	0.0	0.0	1.00	82.3590	41.1795	29.6492	0.9	0.85	1000	-1000	1000	0.1	0.01	0	0	1;
	1037	0.0	0.0	1.00	82.0245	41.0123	29.5288	0.9	0.85	1000	-1000	1000	0.1	0.01	0	0	1;
	1788	0.0	0.0	1.00	81.6015	40.8008	29.3765	0.9	0.85	1000	-1000	1000	0.1	0.01	0	0	1;
	116	0.0	0.0	1.00	81.3855	40.6927	29.2988	0.9	0.85	1000	-1000	1000	0.1	0.01	0	0	1;
	490	0.0	0.0	1.00	81.3735	40.6868	29.2945	0.9	0.85	1000	-1000	1000	0.1	0.01	0	0	1;
...